data/c1/scenario_05/case.raw
0,100.0,33,0,0,60.0
GRID OPTIMIZATION COMPETITION
INPUT DATA FILES ARE RAW ROP INL CON
1,'            ',138.0,1,1,1,1,1.0,0.0,1.1,0.9,1.1,0.9
2,'            ',69.0,1,1,1,1,1.0,0.0,1.1,0.9,1.1,0.9
3,'            ',138.0,1,1,1,1,1.0,0.0,1.1,0.9,1.1,0.9
4,'            ',69.0,1,1,1,1,1.0,0.0,1.1,0.9,1.1,0.9
5,'            ',69.0,1,1,1,1,1.0,0.0,1.1,0.9,1.1,0.9
6,'            ',69.0,1,1,1,1,1.0,0.0,1.1,0.9,1.1,0.9
7,'            ',138.0,1,1,1,1,1.0,0.0,1.1,0.9,1.1,0.9
8,'            ',69.0,1,1,1,1,1.0,0.0,1.1,0.9,1.1,0.9
9,'            ',138.0,1,1,1,1,1.0,0.0,1.1,0.9,1.1,0.9
10,'            ',69.0,1,1,1,1,1.0,0.0,1.1,0.9,1.1,0.9
11,'            ',138.0,1,1,1,1,1.0,0.0,1.1,0.9,1.1,0.9
12,'            ',138.0,1,1,1,1,1.0,0.0,1.1,0.9,1.1,0.9
13,'            ',69.0,1,1,1,1,1.0,0.0,1.1,0.9,1.1,0.9
14,'            ',138.0,1,1,1,1,1.0,0.0,1.1,0.9,1.1,0.9
15,'            ',138.0,1,1,1,1,1.0,0.0,1.1,0.9,1.1,0.9
16,'            ',69.0,1,1,1,1,1.0,0.0,1.1,0.9,1.1,0.9
17,'            ',69.0,1,1,1,1,1.0,0.0,1.1,0.9,1.1,0.9
18,'            ',69.0,1,1,1,1,1.0,0.0,1.1,0.9,1.1,0.9
19,'            ',69.0,1,1,1,1,1.0,0.0,1.1,0.9,1.1,0.9
20,'            ',138.0,1,1,1,1,1.0,0.0,1.1,0.9,1.1,0.9
21,'            ',69.0,1,1,1,1,1.0,0.0,1.1,0.9,1.1,0.9
22,'            ',138.0,1,1,1,1,1.0,0.0,1.1,0.9,1.1,0.9
23,'            ',69.0,1,1,1,1,1.0,0.0,1.1,0.9,1.1,0.9
24,'            ',69.0,1,1,1,1,1.0,0.0,1.1,0.9,1.1,0.9
25,'            ',69.0,1,1,1,1,1.0,0.0,1.1,0.9,1.1,0.9
26,'            ',138.0,1,1,1,1,1.0,0.0,1.1,0.9,1.1,0.9
27,'            ',69.0,1,1,1,1,1.0,0.0,1.1,0.9,1.1,0.9
28,'            ',138.0,1,1,1,1,1.0,0.0,1.1,0.9,1.1,0.9
29,'            ',69.0,1,1,1,1,1.0,0.0,1.1,0.9,1.1,0.9
30,'            ',138.0,1,1,1,1,1.0,0.0,1.1,0.9,1.1,0.9
31,'            ',138.0,1,1,1,1,1.0,0.0,1.1,0.9,1.1,0.9
32,'            ',69.0,1,1,1,1,1.0,0.0,1.1,0.9,1.1,0.9
33,'            ',138.0,1,1,1,1,1.0,0.0,1.1,0.9,1.1,0.9
34,'            ',138.0,1,1,1,1,1.0,0.0,1.1,0.9,1.1,0.9
35,'            ',69.0,1,1,1,1,1.0,0.0,1.1,0.9,1.1,0.9
36,'            ',69.0,1,1,1,1,1.0,0.0,1.1,0.9,1.1,0.9
37,'            ',69.0,1,1,1,1,1.0,0.0,1.1,0.9,1.1,0.9
38,'            ',69.0,1,1,1,1,1.0,0.0,1.1,0.9,1.1,0.9
39,'            ',138.0,1,1,1,1,1.0,0.0,1.1,0.9,1.1,0.9
40,'            ',69.0,1,1,1,1,1.0,0.0,1.1,0.9,1.1,0.9
41,'            ',69.0,1,1,1,1,1.0,0.0,1.1,0.9,1.1,0.9
42,'            ',138.0,1,1,1,1,1.0,0.0,1.1,0.9,1.1,0.9
43,'            ',69.0,1,1,1,1,1.0,0.0,1.1,0.9,1.1,0.9
44,'            ',138.0,1,1,1,1,1.0,0.0,1.1,0.9,1.1,0.9
45,'            ',69.0,1,1,1,1,1.0,0.0,1.1,0.9,1.1,0.9
46,'            ',69.0,1,1,1,1,1.0,0.0,1.1,0.9,1.1,0.9
47,'            ',345.0,1,1,1,1,1.0,0.0,1.1,0.9,1.1,0.9
48,'            ',138.0,1,1,1,1,1.0,0.0,1.1,0.9,1.1,0.9
49,'            ',69.0,1,1,1,1,1.0,0.0,1.1,0.9,1.1,0.9
50,'            ',345.0,1,1,1,1,1.0,0.0,1.1,0.9,1.1,0.9
51,'            ',69.0,1,1,1,1,1.0,0.0,1.1,0.9,1.1,0.9
52,'            ',345.0,1,1,1,1,1.0,0.0,1.1,0.9,1.1,0.9
53,'            ',138.0,1,1,1,1,1.0,0.0,1.1,0.9,1.1,0.9
54,'            ',345.0,1,1,1,1,1.0,0.0,1.1,0.9,1.1,0.9
55,'            ',138.0,1,1,1,1,1.0,0.0,1.1,0.9,1.1,0.9
56,'            ',69.0,1,1,1,1,1.0,0.0,1.1,0.9,1.1,0.9
57,'            ',138.0,1,1,1,1,1.0,0.0,1.1,0.9,1.1,0.9
58,'            ',69.0,1,1,1,1,1.0,0.0,1.1,0.9,1.1,0.9
59,'            ',69.0,1,1,1,1,1.0,0.0,1.1,0.9,1.1,0.9
60,'            ',69.0,1,1,1,1,1.0,0.0,1.1,0.9,1.1,0.9
61,'            ',69.0,1,1,1,1,1.0,0.0,1.1,0.9,1.1,0.9
62,'            ',69.0,1,1,1,1,1.0,0.0,1.1,0.9,1.1,0.9
63,'            ',138.0,1,1,1,1,1.0,0.0,1.1,0.9,1.1,0.9
64,'            ',69.0,1,1,1,1,1.0,0.0,1.1,0.9,1.1,0.9
65,'            ',138.0,1,1,1,1,1.0,0.0,1.1,0.9,1.1,0.9
66,'            ',69.0,1,1,1,1,1.0,0.0,1.1,0.9,1.1,0.9
67,'            ',138.0,1,1,1,1,1.0,0.0,1.1,0.9,1.1,0.9
68,'            ',69.0,1,1,1,1,1.0,0.0,1.1,0.9,1.1,0.9
69,'            ',138.0,1,1,1,1,1.0,0.0,1.1,0.9,1.1,0.9
70,'            ',69.0,1,1,1,1,1.0,0.0,1.1,0.9,1.1,0.9
71,'            ',138.0,1,1,1,1,1.0,0.0,1.1,0.9,1.1,0.9
72,'            ',69.0,1,1,1,1,1.0,0.0,1.1,0.9,1.1,0.9
73,'            ',138.0,1,1,1,1,1.0,0.0,1.1,0.9,1.1,0.9
74,'            ',69.0,1,1,1,1,1.0,0.0,1.1,0.9,1.1,0.9
75,'            ',69.0,1,1,1,1,1.0,0.0,1.1,0.9,1.1,0.9
76,'            ',138.0,1,1,1,1,1.0,0.0,1.1,0.9,1.1,0.9
77,'            ',69.0,1,1,1,1,1.0,0.0,1.1,0.9,1.1,0.9
78,'            ',138.0,1,1,1,1,1.0,0.0,1.1,0.9,1.1,0.9
79,'            ',138.0,1,1,1,1,1.0,0.0,1.1,0.9,1.1,0.9
80,'            ',69.0,1,1,1,1,1.0,0.0,1.1,0.9,1.1,0.9
81,'            ',138.0,1,1,1,1,1.0,0.0,1.1,0.9,1.1,0.9
82,'            ',69.0,1,1,1,1,1.0,0.0,1.1,0.9,1.1,0.9
83,'            ',138.0,1,1,1,1,1.0,0.0,1.1,0.9,1.1,0.9
84,'            ',138.0,1,1,1,1,1.0,0.0,1.1,0.9,1.1,0.9
85,'            ',138.0,1,1,1,1,1.0,0.0,1.1,0.9,1.1,0.9
86,'            ',138.0,1,1,1,1,1.0,0.0,1.1,0.9,1.1,0.9
87,'            ',69.0,1,1,1,1,1.0,0.0,1.1,0.9,1.1,0.9
88,'            ',138.0,1,1,1,1,1.0,0.0,1.1,0.9,1.1,0.9
89,'            ',138.0,1,1,1,1,1.0,0.0,1.1,0.9,1.1,0.9
90,'            ',69.0,1,1,1,1,1.0,0.0,1.1,0.9,1.1,0.9
91,'            ',138.0,1,1,1,1,1.0,0.0,1.1,0.9,1.1,0.9
92,'            ',69.0,1,1,1,1,1.0,0.0,1.1,0.9,1.1,0.9
93,'            ',69.0,1,1,1,1,1.0,0.0,1.1,0.9,1.1,0.9
94,'            ',69.0,1,1,1,1,1.0,0.0,1.1,0.9,1.1,0.9
95,'            ',69.0,1,1,1,1,1.0,0.0,1.1,0.9,1.1,0.9
96,'            ',345.0,1,1,1,1,1.0,0.0,1.1,0.9,1.1,0.9
97,'            ',138.0,1,1,1,1,1.0,0.0,1.1,0.9,1.1,0.9
98,'            ',69.0,1,1,1,1,1.0,0.0,1.1,0.9,1.1,0.9
99,'            ',138.0,1,1,1,1,1.0,0.0,1.1,0.9,1.1,0.9
100,'            ',138.0,1,1,1,1,1.0,0.0,1.1,0.9,1.1,0.9
101,'            ',69.0,1,1,1,1,1.0,0.0,1.1,0.9,1.1,0.9
102,'            ',138.0,1,1,1,1,1.0,0.0,1.1,0.9,1.1,0.9
103,'            ',69.0,1,1,1,1,1.0,0.0,1.1,0.9,1.1,0.9
104,'            ',69.0,1,1,1,1,1.0,0.0,1.1,0.9,1.1,0.9
105,'            ',345.0,1,1,1,1,1.0,0.0,1.1,0.9,1.1,0.9
106,'            ',138.0,1,1,1,1,1.0,0.0,1.1,0.9,1.1,0.9
107,'            ',69.0,1,1,1,1,1.0,0.0,1.1,0.9,1.1,0.9
108,'            ',345.0,1,1,1,1,1.0,0.0,1.1,0.9,1.1,0.9
109,'            ',69.0,1,1,1,1,1.0,0.0,1.1,0.9,1.1,0.9
110,'            ',138.0,1,1,1,1,1.0,0.0,1.1,0.9,1.1,0.9
111,'            ',69.0,1,1,1,1,1.0,0.0,1.1,0.9,1.1,0.9
112,'            ',138.0,1,1,1,1,1.0,0.0,1.1,0.9,1.1,0.9
113,'            ',69.0,1,1,1,1,1.0,0.0,1.1,0.9,1.1,0.9
114,'            ',69.0,1,1,1,1,1.0,0.0,1.1,0.9,1.1,0.9
115,'            ',69.0,1,1,1,1,1.0,0.0,1.1,0.9,1.1,0.9
116,'            ',69.0,1,1,1,1,1.0,0.0,1.1,0.9,1.1,0.9
117,'            ',69.0,1,1,1,1,1.0,0.0,1.1,0.9,1.1,0.9
118,'            ',69.0,1,1,1,1,1.0,0.0,1.1,0.9,1.1,0.9
119,'            ',69.0,1,1,1,1,1.0,0.0,1.1,0.9,1.1,0.9
120,'            ',69.0,1,1,1,1,1.0,0.0,1.1,0.9,1.1,0.9
121,'            ',138.0,1,1,1,1,1.0,0.0,1.1,0.9,1.1,0.9
122,'            ',69.0,1,1,1,1,1.0,0.0,1.1,0.9,1.1,0.9
123,'            ',138.0,1,1,1,1,1.0,0.0,1.1,0.9,1.1,0.9
124,'            ',138.0,1,1,1,1,1.0,0.0,1.1,0.9,1.1,0.9
125,'            ',69.0,1,1,1,1,1.0,0.0,1.1,0.9,1.1,0.9
126,'            ',138.0,1,1,1,1,1.0,0.0,1.1,0.9,1.1,0.9
127,'            ',69.0,1,1,1,1,1.0,0.0,1.1,0.9,1.1,0.9
128,'            ',69.0,1,1,1,1,1.0,0.0,1.1,0.9,1.1,0.9
129,'            ',69.0,1,1,1,1,1.0,0.0,1.1,0.9,1.1,0.9
130,'            ',69.0,1,1,1,1,1.0,0.0,1.1,0.9,1.1,0.9
131,'            ',69.0,1,1,1,1,1.0,0.0,1.1,0.9,1.1,0.9
132,'            ',138.0,1,1,1,1,1.0,0.0,1.1,0.9,1.1,0.9
133,'            ',69.0,1,1,1,1,1.0,0.0,1.1,0.9,1.1,0.9
134,'            ',138.0,1,1,1,1,1.0,0.0,1.1,0.9,1.1,0.9
135,'            ',138.0,1,1,1,1,1.0,0.0,1.1,0.9,1.1,0.9
136,'            ',69.0,1,1,1,1,1.0,0.0,1.1,0.9,1.1,0.9
137,'            ',138.0,1,1,1,1,1.0,0.0,1.1,0.9,1.1,0.9
138,'            ',69.0,1,1,1,1,1.0,0.0,1.1,0.9,1.1,0.9
139,'            ',138.0,1,1,1,1,1.0,0.0,1.1,0.9,1.1,0.9
140,'            ',69.0,1,1,1,1,1.0,0.0,1.1,0.9,1.1,0.9
141,'            ',138.0,1,1,1,1,1.0,0.0,1.1,0.9,1.1,0.9
142,'            ',138.0,1,1,1,1,1.0,0.0,1.1,0.9,1.1,0.9
143,'            ',69.0,1,1,1,1,1.0,0.0,1.1,0.9,1.1,0.9
144,'            ',138.0,1,1,1,1,1.0,0.0,1.1,0.9,1.1,0.9
145,'            ',69.0,1,1,1,1,1.0,0.0,1.1,0.9,1.1,0.9
146,'            ',69.0,1,1,1,1,1.0,0.0,1.1,0.9,1.1,0.9
147,'            ',138.0,1,1,1,1,1.0,0.0,1.1,0.9,1.1,0.9
148,'            ',69.0,1,1,1,1,1.0,0.0,1.1,0.9,1.1,0.9
149,'            ',138.0,1,1,1,1,1.0,0.0,1.1,0.9,1.1,0.9
150,'            ',69.0,1,1,1,1,1.0,0.0,1.1,0.9,1.1,0.9
151,'            ',138.0,1,1,1,1,1.0,0.0,1.1,0.9,1.1,0.9
152,'            ',69.0,1,1,1,1,1.0,0.0,1.1,0.9,1.1,0.9
153,'            ',138.0,1,1,1,1,1.0,0.0,1.1,0.9,1.1,0.9
154,'            ',69.0,1,1,1,1,1.0,0.0,1.1,0.9,1.1,0.9
155,'            ',69.0,1,1,1,1,1.0,0.0,1.1,0.9,1.1,0.9
156,'            ',69.0,1,1,1,1,1.0,0.0,1.1,0.9,1.1,0.9
157,'            ',138.0,1,1,1,1,1.0,0.0,1.1,0.9,1.1,0.9
158,'            ',138.0,1,1,1,1,1.0,0.0,1.1,0.9,1.1,0.9
159,'            ',345.0,1,1,1,1,1.0,0.0,1.1,0.9,1.1,0.9
160,'            ',138.0,1,1,1,1,1.0,0.0,1.1,0.9,1.1,0.9
161,'            ',69.0,1,1,1,1,1.0,0.0,1.1,0.9,1.1,0.9
162,'            ',138.0,1,1,1,1,1.0,0.0,1.1,0.9,1.1,0.9
163,'            ',69.0,1,1,1,1,1.0,0.0,1.1,0.9,1.1,0.9
164,'            ',69.0,1,1,1,1,1.0,0.0,1.1,0.9,1.1,0.9
165,'            ',138.0,1,1,1,1,1.0,0.0,1.1,0.9,1.1,0.9
166,'            ',69.0,1,1,1,1,1.0,0.0,1.1,0.9,1.1,0.9
167,'            ',138.0,1,1,1,1,1.0,0.0,1.1,0.9,1.1,0.9
168,'            ',69.0,1,1,1,1,1.0,0.0,1.1,0.9,1.1,0.9
169,'            ',69.0,1,1,1,1,1.0,0.0,1.1,0.9,1.1,0.9
170,'            ',138.0,1,1,1,1,1.0,0.0,1.1,0.9,1.1,0.9
171,'            ',69.0,1,1,1,1,1.0,0.0,1.1,0.9,1.1,0.9
172,'            ',138.0,1,1,1,1,1.0,0.0,1.1,0.9,1.1,0.9
173,'            ',69.0,1,1,1,1,1.0,0.0,1.1,0.9,1.1,0.9
174,'            ',138.0,1,1,1,1,1.0,0.0,1.1,0.9,1.1,0.9
175,'            ',69.0,1,1,1,1,1.0,0.0,1.1,0.9,1.1,0.9
176,'            ',138.0,1,1,1,1,1.0,0.0,1.1,0.9,1.1,0.9
177,'            ',69.0,1,1,1,1,1.0,0.0,1.1,0.9,1.1,0.9
178,'            ',69.0,1,1,1,1,1.0,0.0,1.1,0.9,1.1,0.9
179,'            ',69.0,1,1,1,1,1.0,0.0,1.1,0.9,1.1,0.9
180,'            ',69.0,1,1,1,1,1.0,0.0,1.1,0.9,1.1,0.9
181,'            ',138.0,1,1,1,1,1.0,0.0,1.1,0.9,1.1,0.9
182,'            ',69.0,1,1,1,1,1.0,0.0,1.1,0.9,1.1,0.9
183,'            ',138.0,1,1,1,1,1.0,0.0,1.1,0.9,1.1,0.9
184,'            ',69.0,1,1,1,1,1.0,0.0,1.1,0.9,1.1,0.9
185,'            ',69.0,1,1,1,1,1.0,0.0,1.1,0.9,1.1,0.9
186,'            ',69.0,1,1,1,1,1.0,0.0,1.1,0.9,1.1,0.9
187,'            ',69.0,1,1,1,1,1.0,0.0,1.1,0.9,1.1,0.9
188,'            ',138.0,1,1,1,1,1.0,0.0,1.1,0.9,1.1,0.9
189,'            ',69.0,1,1,1,1,1.0,0.0,1.1,0.9,1.1,0.9
190,'            ',138.0,1,1,1,1,1.0,0.0,1.1,0.9,1.1,0.9
191,'            ',138.0,1,1,1,1,1.0,0.0,1.1,0.9,1.1,0.9
192,'            ',69.0,1,1,1,1,1.0,0.0,1.1,0.9,1.1,0.9
193,'            ',138.0,1,1,1,1,1.0,0.0,1.1,0.9,1.1,0.9
194,'            ',138.0,1,1,1,1,1.0,0.0,1.1,0.9,1.1,0.9
195,'            ',69.0,1,1,1,1,1.0,0.0,1.1,0.9,1.1,0.9
196,'            ',138.0,1,1,1,1,1.0,0.0,1.1,0.9,1.1,0.9
197,'            ',69.0,1,1,1,1,1.0,0.0,1.1,0.9,1.1,0.9
198,'            ',69.0,1,1,1,1,1.0,0.0,1.1,0.9,1.1,0.9
199,'            ',69.0,1,1,1,1,1.0,0.0,1.1,0.9,1.1,0.9
200,'            ',69.0,1,1,1,1,1.0,0.0,1.1,0.9,1.1,0.9
...
0 / END OF BUS DATA BEGIN LOAD DATA
3,'1',1,1,1,87.784938,42.475931,0.0,0.0,0.0,0.0,1,1,0
4,'1',1,1,1,56.19018,3.7861873,0.0,0.0,0.0,0.0,1,1,0
5,'1',1,1,1,75.436696,37.132401,0.0,0.0,0.0,0.0,1,1,0
6,'1',1,1,1,88.794954,7.1984531,0.0,0.0,0.0,0.0,1,1,0
7,'1',1,1,1,80.825376,17.384503,0.0,0.0,0.0,0.0,1,1,0
8,'1',1,1,1,57.294532,14.990142,0.0,0.0,0.0,0.0,1,1,0
11,'1',1,1,1,106.20576,34.894058,0.0,0.0,0.0,0.0,1,1,0
13,'1',1,1,1,118.53662,25.385991,0.0,0.0,0.0,0.0,1,1,0
15,'1',1,1,1,151.96246,73.846601,0.0,0.0,0.0,0.0,1,1,0
16,'1',1,1,1,71.344952,13.847791,0.0,0.0,0.0,0.0,1,1,0
17,'1',1,1,1,67.06366,39.698523,0.0,0.0,0.0,0.0,1,1,0
19,'1',1,1,1,23.135523,2.6215834,0.0,0.0,0.0,0.0,1,1,0
21,'1',1,1,1,139.41485,17.081419,0.0,0.0,0.0,0.0,1,1,0
23,'1',1,1,1,74.520084,10.996571,0.0,0.0,0.0,0.0,1,1,0
24,'1',1,1,1,16.481686,3.6464943,0.0,0.0,0.0,0.0,1,1,0
25,'1',1,1,1,25.034547,2.9899753,0.0,0.0,0.0,0.0,1,1,0
27,'1',1,1,1,94.368357,25.039186,0.0,0.0,0.0,0.0,1,1,0
29,'1',1,1,1,106.11621,41.4319,0.0,0.0,0.0,0.0,1,1,0
30,'1',1,1,1,87.631495,1.9504625,0.0,0.0,0.0,0.0,1,1,0
33,'1',1,1,1,69.765355,16.1192,0.0,0.0,0.0,0.0,1,1,0
34,'1',1,1,1,75.845361,20.537151,0.0,0.0,0.0,0.0,1,1,0
35,'1',1,1,1,77.264515,14.389155,0.0,0.0,0.0,0.0,1,1,0
36,'1',1,1,1,56.329561,6.3409399,0.0,0.0,0.0,0.0,1,1,0
37,'1',1,1,1,97.466783,11.015471,0.0,0.0,0.0,0.0,1,1,0
38,'1',1,1,1,27.358322,6.8445391,0.0,0.0,0.0,0.0,1,1,0
40,'1',1,1,1,81.830186,45.147551,0.0,0.0,0.0,0.0,1,1,0
41,'1',1,1,1,42.847904,14.333571,0.0,0.0,0.0,0.0,1,1,0
44,'1',1,1,1,94.242298,53.395989,0.0,0.0,0.0,0.0,1,1,0
45,'1',1,1,1,30.754598,5.7520321,0.0,0.0,0.0,0.0,1,1,0
46,'1',1,1,1,34.087836,6.4112452,0.0,0.0,0.0,0.0,1,1,0
50,'1',1,1,1,51.743943,22.027346,0.0,0.0,0.0,0.0,1,1,0
51,'1',1,1,1,41.379779,21.388489,0.0,0.0,0.0,0.0,1,1,0
54,'1',1,1,1,99.16417,31.984919,0.0,0.0,0.0,0.0,1,1,0
57,'1',1,1,1,55.970554,4.1169122,0.0,0.0,0.0,0.0,1,1,0
58,'1',1,1,1,44.790576,18.060073,0.0,0.0,0.0,0.0,1,1,0
59,'1',1,1,1,32.822802,11.133789,0.0,0.0,0.0,0.0,1,1,0
60,'1',1,1,1,23.558918,0.75538119,0.0,0.0,0.0,0.0,1,1,0
61,'1',1,1,1,10.491623,3.191615,0.0,0.0,0.0,0.0,1,1,0
62,'1',1,1,1,11.040764,7.0413835,0.0,0.0,0.0,0.0,1,1,0
65,'1',1,1,1,22.194214,11.567821,0.0,0.0,0.0,0.0,1,1,0
66,'1',1,1,1,9.9700171,3.8122683,0.0,0.0,0.0,0.0,1,1,0
69,'1',1,1,1,12.214905,6.4705521,0.0,0.0,0.0,0.0,1,1,0
70,'1',1,1,1,8.9820983,0.76656629,0.0,0.0,0.0,0.0,1,1,0
72,'1',1,1,1,16.972055,5.6616169,0.0,0.0,0.0,0.0,1,1,0
74,'1',1,1,1,19.506776,1.6061798,0.0,0.0,0.0,0.0,1,1,0
75,'1',1,1,1,17.388119,5.6800202,0.0,0.0,0.0,0.0,1,1,0
78,'1',1,1,1,35.277699,6.2427103,0.0,0.0,0.0,0.0,1,1,0
81,'1',1,1,1,13.10993,2.478294,0.0,0.0,0.0,0.0,1,1,0
82,'1',1,1,1,9.7358081,0.6420855,0.0,0.0,0.0,0.0,1,1,0
84,'1',1,1,1,21.69903,6.9749676,0.0,0.0,0.0,0.0,1,1,0
88,'1',1,1,1,76.839417,18.680891,0.0,0.0,0.0,0.0,1,1,0
91,'1',1,1,1,99.170753,15.923606,0.0,0.0,0.0,0.0,1,1,0
92,'1',1,1,1,40.202148,19.435446,0.0,0.0,0.0,0.0,1,1,0
93,'1',1,1,1,23.762864,5.5528839,0.0,0.0,0.0,0.0,1,1,0
94,'1',1,1,1,24.498526,4.1151619,0.0,0.0,0.0,0.0,1,1,0
95,'1',1,1,1,69.307071,18.380653,0.0,0.0,0.0,0.0,1,1,0
99,'1',1,1,1,98.733772,36.643221,0.0,0.0,0.0,0.0,1,1,0
102,'1',1,1,1,136.3316,19.880533,0.0,0.0,0.0,0.0,1,1,0
103,'1',1,1,1,49.457223,2.3136505,0.0,0.0,0.0,0.0,1,1,0
104,'1',1,1,1,72.798927,25.9577,0.0,0.0,0.0,0.0,1,1,0
108,'1',1,1,1,109.12323,37.166413,0.0,0.0,0.0,0.0,1,1,0
109,'1',1,1,1,58.743467,15.502109,0.0,0.0,0.0,0.0,1,1,0
112,'1',1,1,1,96.737978,22.891603,0.0,0.0,0.0,0.0,1,1,0
113,'1',1,1,1,73.937957,8.6148009,0.0,0.0,0.0,0.0,1,1,0
114,'1',1,1,1,8.7130508,2.4332974,0.0,0.0,0.0,0.0,1,1,0
115,'1',1,1,1,47.321485,20.266348,0.0,0.0,0.0,0.0,1,1,0
116,'1',1,1,1,16.723562,3.6740076,0.0,0.0,0.0,0.0,1,1,0
117,'1',1,1,1,44.916758,1.6352798,0.0,0.0,0.0,0.0,1,1,0
118,'1',1,1,1,17.869024,4.1683482,0.0,0.0,0.0,0.0,1,1,0
119,'1',1,1,1,58.016022,16.003379,0.0,0.0,0.0,0.0,1,1,0
120,'1',1,1,1,81.20852,55.3735,0.0,0.0,0.0,0.0,1,1,0
123,'1',1,1,1,111.23501,34.485892,0.0,0.0,0.0,0.0,1,1,0
126,'1',1,1,1,75.508313,28.500391,0.0,0.0,0.0,0.0,1,1,0
127,'1',1,1,1,37.10413,9.3136464,0.0,0.0,0.0,0.0,1,1,0
128,'1',1,1,1,43.603424,10.493738,0.0,0.0,0.0,0.0,1,1,0
130,'1',1,1,1,95.301792,16.019887,0.0,0.0,0.0,0.0,1,1,0
131,'1',1,1,1,59.764667,31.797194,0.0,0.0,0.0,0.0,1,1,0
133,'1',1,1,1,92.958668,17.072403,0.0,0.0,0.0,0.0,1,1,0
137,'1',1,1,1,182.90457,23.147676,0.0,0.0,0.0,0.0,1,1,0
138,'1',1,1,1,48.388523,5.6801703,0.0,0.0,0.0,0.0,1,1,0
140,'1',1,1,1,135.76669,81.276456,0.0,0.0,0.0,0.0,1,1,0
144,'1',1,1,1,102.73999,19.605359,0.0,0.0,0.0,0.0,1,1,0
145,'1',1,1,1,59.568517,6.9042011,0.0,0.0,0.0,0.0,1,1,0
146,'1',1,1,1,49.087426,10.766261,0.0,0.0,0.0,0.0,1,1,0
149,'1',1,1,1,101.59627,23.747405,0.0,0.0,0.0,0.0,1,1,0
150,'1',1,1,1,71.218597,8.8813251,0.0,0.0,0.0,0.0,1,1,0
153,'1',1,1,1,81.89691,9.5318084,0.0,0.0,0.0,0.0,1,1,0
154,'1',1,1,1,86.983652,18.358753,0.0,0.0,0.0,0.0,1,1,0
155,'1',1,1,1,72.093173,3.1991478,0.0,0.0,0.0,0.0,1,1,0
156,'1',1,1,1,60.906583,27.086272,0.0,0.0,0.0,0.0,1,1,0
157,'1',1,1,1,59.466529,15.561046,0.0,0.0,0.0,0.0,1,1,0
158,'1',1,1,1,83.373639,19.762251,0.0,0.0,0.0,0.0,1,1,0
162,'1',1,1,1,88.707646,12.850741,0.0,0.0,0.0,0.0,1,1,0
163,'1',1,1,1,64.467377,15.659468,0.0,0.0,0.0,0.0,1,1,0
164,'1',1,1,1,32.853829,8.7319667,0.0,0.0,0.0,0.0,1,1,0
167,'1',1,1,1,175.67355,106.87465,0.0,0.0,0.0,0.0,1,1,0
168,'1',1,1,1,34.690674,6.6004029,0.0,0.0,0.0,0.0,1,1,0
169,'1',1,1,1,58.773458,15.639232,0.0,0.0,0.0,0.0,1,1,0
172,'1',1,1,1,77.400619,18.278106,0.0,0.0,0.0,0.0,1,1,0
173,'1',1,1,1,65.899187,34.117781,0.0,0.0,0.0,0.0,1,1,0
176,'1',1,1,1,87.312352,10.243291,0.0,0.0,0.0,0.0,1,1,0
177,'1',1,1,1,42.814048,11.793172,0.0,0.0,0.0,0.0,1,1,0
178,'1',1,1,1,27.03602,5.9625193,0.0,0.0,0.0,0.0,1,1,0
179,'1',1,1,1,58.088559,6.8115894,0.0,0.0,0.0,0.0,1,1,0
180,'1',1,1,1,41.59108,6.0044159,0.0,0.0,0.0,0.0,1,1,0
183,'1',1,1,1,98.86013,23.171438,0.0,0.0,0.0,0.0,1,1,0
184,'1',1,1,1,56.104917,3.9492858,0.0,0.0,0.0,0.0,1,1,0
185,'1',1,1,1,39.982375,6.8834762,0.0,0.0,0.0,0.0,1,1,0
186,'1',1,1,1,45.068797,10.64857,0.0,0.0,0.0,0.0,1,1,0
187,'1',1,1,1,45.213611,13.737069,0.0,0.0,0.0,0.0,1,1,0
190,'1',1,1,1,69.484143,15.588904,0.0,0.0,0.0,0.0,1,1,0
192,'1',1,1,1,61.053905,26.427894,0.0,0.0,0.0,0.0,1,1,0
196,'1',1,1,1,59.078542,9.8439713,0.0,0.0,0.0,0.0,1,1,0
197,'1',1,1,1,53.16132,11.846869,0.0,0.0,0.0,0.0,1,1,0
199,'1',1,1,1,38.205969,5.1447134,0.0,0.0,0.0,0.0,1,1,0
200,'1',1,1,1,47.247581,18.688567,0.0,0.0,0.0,0.0,1,1,0
201,'1',1,1,1,55.49111,11.961022,0.0,0.0,0.0,0.0,1,1,0
204,'1',1,1,1,106.81592,51.36022,0.0,0.0,0.0,0.0,1,1,0
206,'1',1,1,1,36.445818,14.971852,0.0,0.0,0.0,0.0,1,1,0
209,'1',1,1,1,46.03405,13.577408,0.0,0.0,0.0,0.0,1,1,0
213,'1',1,1,1,60.869935,23.777934,0.0,0.0,0.0,0.0,1,1,0
214,'1',1,1,1,39.893165,8.285007,0.0,0.0,0.0,0.0,1,1,0
217,'1',1,1,1,135.03086,40.173277,0.0,0.0,0.0,0.0,1,1,0
218,'1',1,1,1,34.95375,8.7910623,0.0,0.0,0.0,0.0,1,1,0
219,'1',1,1,1,25.512989,15.868162,0.0,0.0,0.0,0.0,1,1,0
220,'1',1,1,1,58.410069,12.758686,0.0,0.0,0.0,0.0,1,1,0
221,'1',1,1,1,31.815149,12.61205,0.0,0.0,0.0,0.0,1,1,0
223,'1',1,1,1,79.765592,10.888164,0.0,0.0,0.0,0.0,1,1,0
225,'1',1,1,1,156.58738,44.683043,0.0,0.0,0.0,0.0,1,1,0
226,'1',1,1,1,62.025493,28.00441,0.0,0.0,0.0,0.0,1,1,0
227,'1',1,1,1,31.506876,11.932403,0.0,0.0,0.0,0.0,1,1,0
229,'1',1,1,1,110.75321,35.342653,0.0,0.0,0.0,0.0,1,1,0
230,'1',1,1,1,5.8028029,1.679068,0.0,0.0,0.0,0.0,1,1,0
234,'1',1,1,1,69.446776,7.7940729,0.0,0.0,0.0,0.0,1,1,0
236,'1',1,1,1,41.574659,7.7722158,0.0,0.0,0.0,0.0,1,1,0
237,'1',1,1,1,50.582247,13.146133,0.0,0.0,0.0,0.0,1,1,0
238,'1',1,1,1,33.391228,7.861289,0.0,0.0,0.0,0.0,1,1,0
239,'1',1,1,1,60.370653,9.1215374,0.0,0.0,0.0,0.0,1,1,0
241,'1',1,1,1,103.38083,12.858789,0.0,0.0,0.0,0.0,1,1,0
242,'1',1,1,1,41.332892,4.4957264,0.0,0.0,0.0,0.0,1,1,0
244,'1',1,1,1,64.895961,6.3220939,0.0,0.0,0.0,0.0,1,1,0
245,'1',1,1,1,68.933691,6.5912414,0.0,0.0,0.0,0.0,1,1,0
246,'1',1,1,1,76.55767,42.963535,0.0,0.0,0.0,0.0,1,1,0
247,'1',1,1,1,89.854205,26.43268,0.0,0.0,0.0,0.0,1,1,0
250,'1',1,1,1,128.6442,4.184803,0.0,0.0,0.0,0.0,1,1,0
253,'1',1,1,1,118.01468,21.497571,0.0,0.0,0.0,0.0,1,1,0
255,'1',1,1,1,83.147779,2.894921,0.0,0.0,0.0,0.0,1,1,0
259,'1',1,1,1,82.17469,24.236018,0.0,0.0,0.0,0.0,1,1,0
260,'1',1,1,1,69.054977,19.133032,0.0,0.0,0.0,0.0,1,1,0
262,'1',1,1,1,87.976538,53.122962,0.0,0.0,0.0,0.0,1,1,0
263,'1',1,1,1,37.984673,13.408004,0.0,0.0,0.0,0.0,1,1,0
265,'1',1,1,1,105.78882,28.658059,0.0,0.0,0.0,0.0,1,1,0
267,'1',1,1,1,62.74311,20.848138,0.0,0.0,0.0,0.0,1,1,0
270,'1',1,1,1,78.633208,19.858578,0.0,0.0,0.0,0.0,1,1,0
271,'1',1,1,1,56.776453,15.914968,0.0,0.0,0.0,0.0,1,1,0
274,'1',1,1,1,88.781068,23.934047,0.0,0.0,0.0,0.0,1,1,0
275,'1',1,1,1,29.073802,10.02339,0.0,0.0,0.0,0.0,1,1,0
276,'1',1,1,1,30.013333,9.5515681,0.0,0.0,0.0,0.0,1,1,0
277,'1',1,1,1,20.060929,2.0926976,0.0,0.0,0.0,0.0,1,1,0
281,'1',1,1,1,43.795499,15.328292,0.0,0.0,0.0,0.0,1,1,0
282,'1',1,1,1,17.226769,5.3057352,0.0,0.0,0.0,0.0,1,1,0
283,'1',1,1,1,23.753271,7.900631,0.0,0.0,0.0,0.0,1,1,0
285,'1',1,1,1,42.796688,4.4210775,0.0,0.0,0.0,0.0,1,1,0
286,'1',1,1,1,78.271696,27.27258,0.0,0.0,0.0,0.0,1,1,0
287,'1',1,1,1,90.34977,13.29627,0.0,0.0,0.0,0.0,1,1,0
288,'1',1,1,1,44.817621,7.8244541,0.0,0.0,0.0,0.0,1,1,0
290,'1',1,1,1,52.628649,3.7354222,0.0,0.0,0.0,0.0,1,1,0
294,'1',1,1,1,42.242233,3.3085415,0.0,0.0,0.0,0.0,1,1,0
295,'1',1,1,1,74.169999,26.491144,0.0,0.0,0.0,0.0,1,1,0
298,'1',1,1,1,77.478328,20.958519,0.0,0.0,0.0,0.0,1,1,0
299,'1',1,1,1,60.711533,21.645108,0.0,0.0,0.0,0.0,1,1,0
300,'1',1,1,1,92.394658,12.419704,0.0,0.0,0.0,0.0,1,1,0
301,'1',1,1,1,40.657739,13.174919,0.0,0.0,0.0,0.0,1,1,0
302,'1',1,1,1,42.269237,9.5741508,0.0,0.0,0.0,0.0,1,1,0
303,'1',1,1,1,25.207661,12.970383,0.0,0.0,0.0,0.0,1,1,0
305,'1',1,1,1,15.044322,0.56353371,0.0,0.0,0.0,0.0,1,1,0
306,'1',1,1,1,25.043797,1.7088303,0.0,0.0,0.0,0.0,1,1,0
307,'1',1,1,1,39.920531,8.1296326,0.0,0.0,0.0,0.0,1,1,0
308,'1',1,1,1,63.010719,4.1073576,0.0,0.0,0.0,0.0,1,1,0
311,'1',1,1,1,75.128424,22.201239,0.0,0.0,0.0,0.0,1,1,0
315,'1',1,1,1,85.30744,31.953836,0.0,0.0,0.0,0.0,1,1,0
318,'1',1,1,1,55.010461,14.403302,0.0,0.0,0.0,0.0,1,1,0
320,'1',1,1,1,58.693351,19.257983,0.0,0.0,0.0,0.0,1,1,0
321,'1',1,1,1,35.397502,15.680688,0.0,0.0,0.0,0.0,1,1,0
324,'1',1,1,1,38.8213,14.684166,0.0,0.0,0.0,0.0,1,1,0
327,'1',1,1,1,42.104309,4.6819039,0.0,0.0,0.0,0.0,1,1,0
328,'1',1,1,1,13.674048,1.3170471,0.0,0.0,0.0,0.0,1,1,0
329,'1',1,1,1,12.775574,1.9998084,0.0,0.0,0.0,0.0,1,1,0
330,'1',1,1,1,46.49019,7.9659132,0.0,0.0,0.0,0.0,1,1,0
333,'1',1,1,1,66.993131,8.8355836,0.0,0.0,0.0,0.0,1,1,0
336,'1',1,1,1,111.49406,12.923549,0.0,0.0,0.0,0.0,1,1,0
338,'1',1,1,1,82.362909,10.246769,0.0,0.0,0.0,0.0,1,1,0
339,'1',1,1,1,63.999771,10.932348,0.0,0.0,0.0,0.0,1,1,0
340,'1',1,1,1,73.037974,24.096768,0.0,0.0,0.0,0.0,1,1,0
341,'1',1,1,1,45.772394,7.0552812,0.0,0.0,0.0,0.0,1,1,0
344,'1',1,1,1,56.059266,20.356978,0.0,0.0,0.0,0.0,1,1,0
345,'1',1,1,1,10.407067,3.5622772,0.0,0.0,0.0,0.0,1,1,0
346,'1',1,1,1,10.989751,2.36689,0.0,0.0,0.0,0.0,1,1,0
347,'1',1,1,1,23.883659,7.8174971,0.0,0.0,0.0,0.0,1,1,0
350,'1',1,1,1,101.44452,31.30276,0.0,0.0,0.0,0.0,1,1,0
...
0 / END OF LOAD DATA BEGIN FIXED SHUNT DATA
0 / END OF FIXED SHUNT DATA BEGIN GENERATOR DATA
511,'1',0.0,0.0,146.041,-31.848,1.036,0,286.92,0.0,1.0,0.0,0.0,1.0,1,1.0,286.917,111.868,1,1.0,0,1.0,0,1.0,0,1.0,0,1.0
512,'1',0.0,0.0,146.041,-31.848,1.036,0,286.92,0.0,1.0,0.0,0.0,1.0,1,1.0,286.917,136.713,1,1.0,0,1.0,0,1.0,0,1.0,0,1.0
513,'1',0.0,0.0,146.041,-31.848,1.036,0,286.92,0.0,1.0,0.0,0.0,1.0,1,1.0,286.917,117.88,1,1.0,0,1.0,0,1.0,0,1.0,0,1.0
514,'1',0.0,0.0,146.041,-31.848,1.036,0,286.92,0.0,1.0,0.0,0.0,1.0,1,1.0,286.917,119.916,1,1.0,0,1.0,0,1.0,0,1.0,0,1.0
515,'1',0.0,0.0,146.041,-31.848,1.036,0,286.92,0.0,1.0,0.0,0.0,1.0,1,1.0,286.917,143.131,1,1.0,0,1.0,0,1.0,0,1.0,0,1.0
516,'1',0.0,0.0,146.041,-31.848,1.036,0,286.92,0.0,1.0,0.0,0.0,1.0,1,1.0,286.917,65.487,1,1.0,0,1.0,0,1.0,0,1.0,0,1.0
518,'1',0.0,0.0,13.488,-2.942,1.0336012,0,26.5,0.0,1.0,0.0,0.0,1.0,1,1.0,26.5,8.564,1,1.0,0,1.0,0,1.0,0,1.0,0,1.0
522,'1',0.0,0.0,301.245,-67.125,1.0725,0,818.6,0.0,1.0,0.0,0.0,1.0,1,1.0,818.6,393.254,1,1.0,0,1.0,0,1.0,0,1.0,0,1.0
523,'1',0.0,0.0,301.245,-67.125,1.075,0,818.6,0.0,1.0,0.0,0.0,1.0,1,1.0,818.6,92.398,1,1.0,0,1.0,0,1.0,0,1.0,0,1.0
525,'1',0.0,0.0,3.02,-0.659,1.0420017,0,5.93,0.0,1.0,0.0,0.0,1.0,0,1.0,5.933,1.3,1,1.0,0,1.0,0,1.0,0,1.0,0,1.0
525,'2',0.0,0.0,3.02,-0.659,1.0420017,0,5.93,0.0,1.0,0.0,0.0,1.0,0,1.0,5.933,1.833,1,1.0,0,1.0,0,1.0,0,1.0,0,1.0
525,'3',0.0,0.0,3.02,-0.659,1.0420017,0,5.93,0.0,1.0,0.0,0.0,1.0,0,1.0,5.933,2.076,1,1.0,0,1.0,0,1.0,0,1.0,0,1.0
525,'4',0.0,0.0,3.02,-0.659,1.0420017,0,5.93,0.0,1.0,0.0,0.0,1.0,0,1.0,5.933,1.712,1,1.0,0,1.0,0,1.0,0,1.0,0,1.0
525,'5',0.0,0.0,3.02,-0.659,1.0420017,0,5.93,0.0,1.0,0.0,0.0,1.0,0,1.0,5.933,1.58,1,1.0,0,1.0,0,1.0,0,1.0,0,1.0
525,'6',0.0,0.0,3.02,-0.659,1.0420017,0,5.93,0.0,1.0,0.0,0.0,1.0,0,1.0,5.933,1.676,1,1.0,0,1.0,0,1.0,0,1.0,0,1.0
529,'1',0.0,0.0,124.603,-27.173,1.0557824,0,244.8,0.0,1.0,0.0,0.0,1.0,0,1.0,244.8,40.619,1,1.0,0,1.0,0,1.0,0,1.0,0,1.0
530,'1',0.0,0.0,124.603,-27.173,1.0045,0,244.8,0.0,1.0,0.0,0.0,1.0,1,1.0,244.8,50.102,1,1.0,0,1.0,0,1.0,0,1.0,0,1.0
531,'1',0.0,0.0,124.603,-27.173,1.0039055,0,244.8,0.0,1.0,0.0,0.0,1.0,1,1.0,244.8,103.321,1,1.0,0,1.0,0,1.0,0,1.0,0,1.0
532,'1',0.0,0.0,124.603,-27.173,1.0045,0,244.8,0.0,1.0,0.0,0.0,1.0,1,1.0,244.8,92.537,1,1.0,0,1.0,0,1.0,0,1.0,0,1.0
533,'1',0.0,0.0,124.603,-27.173,1.0045,0,244.8,0.0,1.0,0.0,0.0,1.0,1,1.0,244.8,82.618,1,1.0,0,1.0,0,1.0,0,1.0,0,1.0
536,'1',0.0,0.0,187.332,-49.044,1.0395071,0,402.0,0.0,1.0,0.0,0.0,1.0,1,1.0,402.0,150.56,1,1.0,0,1.0,0,1.0,0,1.0,0,1.0
537,'1',0.0,0.0,187.332,-49.044,1.0421838,0,402.0,0.0,1.0,0.0,0.0,1.0,1,1.0,402.0,171.138,1,1.0,0,1.0,0,1.0,0,1.0,0,1.0
539,'1',0.0,0.0,1.709,-0.447,1.0548468,0,3.67,0.0,1.0,0.0,0.0,1.0,1,1.0,3.667,0.435,1,1.0,0,1.0,0,1.0,0,1.0,0,1.0
539,'2',0.0,0.0,1.709,-0.447,1.0548468,0,3.67,0.0,1.0,0.0,0.0,1.0,1,1.0,3.667,1.28,1,1.0,0,1.0,0,1.0,0,1.0,0,1.0
539,'3',0.0,0.0,1.709,-0.447,1.0548468,0,3.67,0.0,1.0,0.0,0.0,1.0,1,1.0,3.667,1.817,1,1.0,0,1.0,0,1.0,0,1.0,0,1.0
539,'4',0.0,0.0,1.709,-0.447,1.0548468,0,3.67,0.0,1.0,0.0,0.0,1.0,1,1.0,3.667,0.899,1,1.0,0,1.0,0,1.0,0,1.0,0,1.0
539,'5',0.0,0.0,1.709,-0.447,1.0548468,0,3.67,0.0,1.0,0.0,0.0,1.0,0,1.0,3.667,1.289,1,1.0,0,1.0,0,1.0,0,1.0,0,1.0
539,'6',0.0,0.0,1.709,-0.447,1.0548468,0,3.67,0.0,1.0,0.0,0.0,1.0,0,1.0,3.667,1.159,1,1.0,0,1.0,0,1.0,0,1.0,0,1.0
542,'1',0.0,0.0,88.43,-19.284,1.0335177,0,173.73,0.0,1.0,0.0,0.0,1.0,1,1.0,173.733,56.291,1,1.0,0,1.0,0,1.0,0,1.0,0,1.0
543,'1',0.0,0.0,88.43,-19.284,1.0300361,0,173.73,0.0,1.0,0.0,0.0,1.0,1,1.0,173.733,50.048,1,1.0,0,1.0,0,1.0,0,1.0,0,1.0
544,'1',0.0,0.0,88.43,-19.284,1.0308745,0,173.73,0.0,1.0,0.0,0.0,1.0,1,1.0,173.733,80.656,1,1.0,0,1.0,0,1.0,0,1.0,0,1.0
545,'1',0.0,0.0,88.43,-19.284,1.034599,0,173.73,0.0,1.0,0.0,0.0,1.0,1,1.0,173.733,73.088,1,1.0,0,1.0,0,1.0,0,1.0,0,1.0
546,'1',0.0,0.0,88.43,-19.284,1.0281861,0,173.73,0.0,1.0,0.0,0.0,1.0,1,1.0,173.733,59.116,1,1.0,0,1.0,0,1.0,0,1.0,0,1.0
547,'1',0.0,0.0,88.43,-19.284,1.0296214,0,173.73,0.0,1.0,0.0,0.0,1.0,1,1.0,173.733,49.273,1,1.0,0,1.0,0,1.0,0,1.0,0,1.0
551,'1',0.0,0.0,397.44,-88.56,1.045,0,1080.0,0.0,1.0,0.0,0.0,1.0,1,1.0,1080.0,168.179,1,1.0,0,1.0,0,1.0,0,1.0,0,1.0
552,'1',0.0,0.0,397.44,-88.56,1.045,0,1080.0,0.0,1.0,0.0,0.0,1.0,1,1.0,1080.0,172.722,1,1.0,0,1.0,0,1.0,0,1.0,0,1.0
554,'1',0.0,0.0,34.816,-7.592,1.0344711,0,68.4,0.0,1.0,0.0,0.0,1.0,1,1.0,68.4,31.465,1,1.0,0,1.0,0,1.0,0,1.0,0,1.0
554,'2',0.0,0.0,34.816,-7.592,1.0344711,0,68.4,0.0,1.0,0.0,0.0,1.0,1,1.0,68.4,18.691,1,1.0,0,1.0,0,1.0,0,1.0,0,1.0
554,'3',0.0,0.0,34.816,-7.592,1.0344711,0,68.4,0.0,1.0,0.0,0.0,1.0,1,1.0,68.4,19.594,1,1.0,0,1.0,0,1.0,0,1.0,0,1.0
554,'4',0.0,0.0,34.816,-7.592,1.0344711,0,68.4,0.0,1.0,0.0,0.0,1.0,1,1.0,68.4,27.758,1,1.0,0,1.0,0,1.0,0,1.0,0,1.0
554,'5',0.0,0.0,34.816,-7.592,1.0344711,0,68.4,0.0,1.0,0.0,0.0,1.0,1,1.0,68.4,26.86,1,1.0,0,1.0,0,1.0,0,1.0,0,1.0
554,'6',0.0,0.0,34.816,-7.592,1.0344711,0,68.4,0.0,1.0,0.0,0.0,1.0,1,1.0,68.4,13.872,1,1.0,0,1.0,0,1.0,0,1.0,0,1.0
558,'1',0.0,0.0,69.631,-15.185,1.0232698,0,136.8,0.0,1.0,0.0,0.0,1.0,1,1.0,136.8,14.056,1,1.0,0,1.0,0,1.0,0,1.0,0,1.0
559,'1',0.0,0.0,69.631,-15.185,1.0253371,0,136.8,0.0,1.0,0.0,0.0,1.0,1,1.0,136.8,64.405,1,1.0,0,1.0,0,1.0,0,1.0,0,1.0
560,'1',0.0,0.0,69.631,-15.185,1.0241229,0,136.8,0.0,1.0,0.0,0.0,1.0,1,1.0,136.8,41.032,1,1.0,0,1.0,0,1.0,0,1.0,0,1.0
561,'1',0.0,0.0,69.631,-15.185,1.0269806,0,136.8,0.0,1.0,0.0,0.0,1.0,1,1.0,136.8,28.648,1,1.0,0,1.0,0,1.0,0,1.0,0,1.0
562,'1',0.0,0.0,69.631,-15.185,1.0249926,0,136.8,0.0,1.0,0.0,0.0,1.0,1,1.0,136.8,20.963,1,1.0,0,1.0,0,1.0,0,1.0,0,1.0
563,'1',0.0,0.0,69.631,-15.185,1.0264185,0,136.8,0.0,1.0,0.0,0.0,1.0,1,1.0,136.8,36.541,1,1.0,0,1.0,0,1.0,0,1.0,0,1.0
567,'1',0.0,0.0,361.645,-78.865,1.018,0,710.5,0.0,1.0,0.0,0.0,1.0,1,1.0,710.5,213.037,1,1.0,0,1.0,0,1.0,0,1.0,0,1.0
568,'1',0.0,0.0,361.645,-78.865,1.018,0,710.5,0.0,1.0,0.0,0.0,1.0,1,1.0,710.5,129.441,1,1.0,0,1.0,0,1.0,0,1.0,0,1.0
569,'1',0.0,0.0,361.645,-78.865,1.018,0,710.5,0.0,1.0,0.0,0.0,1.0,1,1.0,710.5,336.192,1,1.0,0,1.0,0,1.0,0,1.0,0,1.0
570,'1',0.0,0.0,361.645,-78.865,1.018,0,710.5,0.0,1.0,0.0,0.0,1.0,1,1.0,710.5,76.15,1,1.0,0,1.0,0,1.0,0,1.0,0,1.0
571,'1',0.0,0.0,361.645,-78.865,1.0529693,0,710.5,0.0,1.0,0.0,0.0,1.0,0,1.0,710.5,73.471,1,1.0,0,1.0,0,1.0,0,1.0,0,1.0
572,'1',0.0,0.0,361.645,-78.865,1.0529693,0,710.5,0.0,1.0,0.0,0.0,1.0,0,1.0,710.5,216.649,1,1.0,0,1.0,0,1.0,0,1.0,0,1.0
574,'1',0.0,0.0,57.784,-15.128,1.018,0,124.0,0.0,1.0,0.0,0.0,1.0,1,1.0,124.0,57.005,1,1.0,0,1.0,0,1.0,0,1.0,0,1.0
575,'1',0.0,0.0,57.784,-15.128,1.018,0,124.0,0.0,1.0,0.0,0.0,1.0,1,1.0,124.0,47.6,1,1.0,0,1.0,0,1.0,0,1.0,0,1.0
576,'1',0.0,0.0,57.784,-15.128,1.018,0,124.0,0.0,1.0,0.0,0.0,1.0,1,1.0,124.0,50.185,1,1.0,0,1.0,0,1.0,0,1.0,0,1.0
577,'1',0.0,0.0,57.784,-15.128,1.018,0,124.0,0.0,1.0,0.0,0.0,1.0,1,1.0,124.0,12.7,1,1.0,0,1.0,0,1.0,0,1.0,0,1.0
578,'1',0.0,0.0,57.784,-15.128,1.018,0,124.0,0.0,1.0,0.0,0.0,1.0,1,1.0,124.0,17.706,1,1.0,0,1.0,0,1.0,0,1.0,0,1.0
579,'1',0.0,0.0,57.784,-15.128,1.018,0,124.0,0.0,1.0,0.0,0.0,1.0,1,1.0,124.0,36.442,1,1.0,0,1.0,0,1.0,0,1.0,0,1.0
581,'1',0.0,0.0,9.825,-2.572,1.038586,0,21.08,0.0,1.0,0.0,0.0,1.0,1,1.0,21.083,5.483,1,1.0,0,1.0,0,1.0,0,1.0,0,1.0
582,'1',0.0,0.0,9.825,-2.572,1.045,0,21.08,0.0,1.0,0.0,0.0,1.0,1,1.0,21.083,6.229,1,1.0,0,1.0,0,1.0,0,1.0,0,1.0
582,'2',0.0,0.0,9.825,-2.572,1.045,0,21.08,0.0,1.0,0.0,0.0,1.0,1,1.0,21.083,6.254,1,1.0,0,1.0,0,1.0,0,1.0,0,1.0
582,'3',0.0,0.0,9.825,-2.572,1.045,0,21.08,0.0,1.0,0.0,0.0,1.0,1,1.0,21.083,7.482,1,1.0,0,1.0,0,1.0,0,1.0,0,1.0
582,'4',0.0,0.0,9.825,-2.572,1.045,0,21.08,0.0,1.0,0.0,0.0,1.0,1,1.0,21.083,4.317,1,1.0,0,1.0,0,1.0,0,1.0,0,1.0
582,'5',0.0,0.0,9.825,-2.572,1.045,0,21.08,0.0,1.0,0.0,0.0,1.0,1,1.0,21.083,7.684,1,1.0,0,1.0,0,1.0,0,1.0,0,1.0
587,'1',0.0,0.0,92.129,-20.091,1.0226883,0,181.0,0.0,1.0,0.0,0.0,1.0,1,1.0,181.0,57.044,1,1.0,0,1.0,0,1.0,0,1.0,0,1.0
588,'1',0.0,0.0,92.129,-20.091,1.0185,0,181.0,0.0,1.0,0.0,0.0,1.0,1,1.0,181.0,65.155,1,1.0,0,1.0,0,1.0,0,1.0,0,1.0
590,'1',0.0,0.0,7.991,-1.743,1.0419308,0,15.7,0.0,1.0,0.0,0.0,1.0,1,1.0,15.7,2.126,1,1.0,0,1.0,0,1.0,0,1.0,0,1.0
590,'2',0.0,0.0,7.991,-1.743,1.0419308,0,15.7,0.0,1.0,0.0,0.0,1.0,1,1.0,15.7,5.004,1,1.0,0,1.0,0,1.0,0,1.0,0,1.0
594,'1',0.0,0.0,164.789,-35.936,1.0245,0,323.75,0.0,1.0,0.0,0.0,1.0,1,1.0,323.75,142.567,1,1.0,0,1.0,0,1.0,0,1.0,0,1.0
595,'1',0.0,0.0,164.789,-35.936,1.0425,0,323.75,0.0,1.0,0.0,0.0,1.0,0,1.0,323.75,54.778,1,1.0,0,1.0,0,1.0,0,1.0,0,1.0
596,'1',0.0,0.0,164.789,-35.936,1.0245,0,323.75,0.0,1.0,0.0,0.0,1.0,1,1.0,323.75,147.206,1,1.0,0,1.0,0,1.0,0,1.0,0,1.0
597,'1',0.0,0.0,164.789,-35.936,1.0245,0,323.75,0.0,1.0,0.0,0.0,1.0,1,1.0,323.75,46.804,1,1.0,0,1.0,0,1.0,0,1.0,0,1.0
599,'1',0.0,0.0,3.169,-0.83,1.0341897,0,6.8,0.0,1.0,0.0,0.0,1.0,0,1.0,6.8,3.324,1,1.0,0,1.0,0,1.0,0,1.0,0,1.0
599,'2',0.0,0.0,3.169,-0.83,1.0341897,0,6.8,0.0,1.0,0.0,0.0,1.0,0,1.0,6.8,0.698,1,1.0,0,1.0,0,1.0,0,1.0,0,1.0
599,'3',0.0,0.0,3.169,-0.83,1.0341897,0,6.8,0.0,1.0,0.0,0.0,1.0,0,1.0,6.8,0.905,1,1.0,0,1.0,0,1.0,0,1.0,0,1.0
599,'4',0.0,0.0,3.169,-0.83,1.0341897,0,6.8,0.0,1.0,0.0,0.0,1.0,0,1.0,6.8,1.101,1,1.0,0,1.0,0,1.0,0,1.0,0,1.0
599,'5',0.0,0.0,3.169,-0.83,1.0341897,0,6.8,0.0,1.0,0.0,0.0,1.0,0,1.0,6.8,3.201,1,1.0,0,1.0,0,1.0,0,1.0,0,1.0
599,'6',0.0,0.0,3.169,-0.83,1.0341897,0,6.8,0.0,1.0,0.0,0.0,1.0,1,1.0,6.8,2.569,1,1.0,0,1.0,0,1.0,0,1.0,0,1.0
1208,'1',0.0,0.0,5.701,-1.243,1.0451387,0,11.2,0.0,1.0,0.0,0.0,1.0,0,1.0,11.2,2.558,1,1.0,0,1.0,0,1.0,0,1.0,0,1.0
1208,'2',0.0,0.0,5.701,-1.243,1.0451387,0,11.2,0.0,1.0,0.0,0.0,1.0,0,1.0,11.2,3.605,1,1.0,0,1.0,0,1.0,0,1.0,0,1.0
1212,'1',0.0,0.0,72.532,-15.818,1.0592228,0,142.5,0.0,1.0,0.0,0.0,1.0,1,1.0,142.5,40.985,1,1.0,0,1.0,0,1.0,0,1.0,0,1.0
1213,'1',0.0,0.0,72.532,-15.818,1.0560786,0,142.5,0.0,1.0,0.0,0.0,1.0,1,1.0,142.5,55.372,1,1.0,0,1.0,0,1.0,0,1.0,0,1.0
1214,'1',0.0,0.0,72.532,-15.818,1.0725,0,142.5,0.0,1.0,0.0,0.0,1.0,1,1.0,142.5,30.813,1,1.0,0,1.0,0,1.0,0,1.0,0,1.0
1216,'1',0.0,0.0,44.283,-9.657,1.0472854,0,87.0,0.0,1.0,0.0,0.0,1.0,1,1.0,87.0,27.249,1,1.0,0,1.0,0,1.0,0,1.0,0,1.0
1216,'2',0.0,0.0,44.283,-9.657,1.0472854,0,87.0,0.0,1.0,0.0,0.0,1.0,1,1.0,87.0,17.194,1,1.0,0,1.0,0,1.0,0,1.0,0,1.0
1219,'1',0.0,0.0,39.237,-10.272,1.0425,0,84.2,0.0,1.0,0.0,0.0,1.0,1,1.0,84.2,27.937,1,1.0,0,1.0,0,1.0,0,1.0,0,1.0
1219,'2',0.0,0.0,39.237,-10.272,1.0425,0,84.2,0.0,1.0,0.0,0.0,1.0,1,1.0,84.2,9.3,1,1.0,0,1.0,0,1.0,0,1.0,0,1.0
1219,'3',0.0,0.0,39.237,-10.272,1.0425,0,84.2,0.0,1.0,0.0,0.0,1.0,1,1.0,84.2,10.695,1,1.0,0,1.0,0,1.0,0,1.0,0,1.0
1219,'4',0.0,0.0,39.237,-10.272,1.0425,0,84.2,0.0,1.0,0.0,0.0,1.0,1,1.0,84.2,23.64,1,1.0,0,1.0,0,1.0,0,1.0,0,1.0
1219,'5',0.0,0.0,39.237,-10.272,1.0425,0,84.2,0.0,1.0,0.0,0.0,1.0,1,1.0,84.2,29.358,1,1.0,0,1.0,0,1.0,0,1.0,0,1.0
1219,'6',0.0,0.0,39.237,-10.272,1.0425,0,84.2,0.0,1.0,0.0,0.0,1.0,1,1.0,84.2,26.019,1,1.0,0,1.0,0,1.0,0,1.0,0,1.0
1226,'1',0.0,0.0,101.23,-22.076,1.0161187,0,198.88,0.0,1.0,0.0,0.0,1.0,1,1.0,198.88,47.086,1,1.0,0,1.0,0,1.0,0,1.0,0,1.0
1227,'1',0.0,0.0,101.23,-22.076,1.0176029,0,198.88,0.0,1.0,0.0,0.0,1.0,1,1.0,198.88,56.121,1,1.0,0,1.0,0,1.0,0,1.0,0,1.0
1228,'1',0.0,0.0,101.23,-22.076,1.018065,0,198.88,0.0,1.0,0.0,0.0,1.0,1,1.0,198.88,61.855,1,1.0,0,1.0,0,1.0,0,1.0,0,1.0
1229,'1',0.0,0.0,101.23,-22.076,1.0196584,0,198.88,0.0,1.0,0.0,0.0,1.0,1,1.0,198.88,72.249,1,1.0,0,1.0,0,1.0,0,1.0,0,1.0
1230,'1',0.0,0.0,101.23,-22.076,1.0168948,0,198.88,0.0,1.0,0.0,0.0,1.0,1,1.0,198.88,76.895,1,1.0,0,1.0,0,1.0,0,1.0,0,1.0
1232,'1',0.0,0.0,2.723,-0.594,1.025413,0,5.35,0.0,1.0,0.0,0.0,1.0,0,1.0,5.35,2.222,1,1.0,0,1.0,0,1.0,0,1.0,0,1.0
1233,'1',0.0,0.0,2.723,-0.594,1.0448722,0,5.35,0.0,1.0,0.0,0.0,1.0,0,1.0,5.35,2.517,1,1.0,0,1.0,0,1.0,0,1.0,0,1.0
1237,'1',0.0,0.0,104.701,-22.833,1.0585,0,205.7,0.0,1.0,0.0,0.0,1.0,1,1.0,205.7,53.667,1,1.0,0,1.0,0,1.0,0,1.0,0,1.0
1238,'1',0.0,0.0,104.701,-22.833,1.0585,0,205.7,0.0,1.0,0.0,0.0,1.0,1,1.0,205.7,30.887,1,1.0,0,1.0,0,1.0,0,1.0,0,1.0
1243,'1',0.0,0.0,101.495,-22.133,1.0209029,0,199.4,0.0,1.0,0.0,0.0,1.0,1,1.0,199.4,92.481,1,1.0,0,1.0,0,1.0,0,1.0,0,1.0
1244,'1',0.0,0.0,101.495,-22.133,1.0220675,0,199.4,0.0,1.0,0.0,0.0,1.0,1,1.0,199.4,47.17,1,1.0,0,1.0,0,1.0,0,1.0,0,1.0
1246,'1',0.0,0.0,21.378,-4.662,1.0226744,0,42.0,0.0,1.0,0.0,0.0,1.0,0,1.0,42.0,17.993,1,1.0,0,1.0,0,1.0,0,1.0,0,1.0
1251,'1',0.0,0.0,91.824,-20.024,1.0475,0,180.4,0.0,1.0,0.0,0.0,1.0,1,1.0,180.4,18.965,1,1.0,0,1.0,0,1.0,0,1.0,0,1.0
1252,'1',0.0,0.0,91.824,-20.024,1.0491872,0,180.4,0.0,1.0,0.0,0.0,1.0,1,1.0,180.4,28.596,1,1.0,0,1.0,0,1.0,0,1.0,0,1.0
1253,'1',0.0,0.0,91.824,-20.024,1.0482756,0,180.4,0.0,1.0,0.0,0.0,1.0,1,1.0,180.4,62.389,1,1.0,0,1.0,0,1.0,0,1.0,0,1.0
1256,'1',0.0,0.0,170.888,-37.266,1.054,0,335.73,0.0,1.0,0.0,0.0,1.0,1,1.0,335.733,84.582,1,1.0,0,1.0,0,1.0,0,1.0,0,1.0
1257,'1',0.0,0.0,170.888,-37.266,1.054,0,335.73,0.0,1.0,0.0,0.0,1.0,1,1.0,335.733,129.272,1,1.0,0,1.0,0,1.0,0,1.0,0,1.0
1258,'1',0.0,0.0,170.888,-37.266,1.054,0,335.73,0.0,1.0,0.0,0.0,1.0,1,1.0,335.733,56.164,1,1.0,0,1.0,0,1.0,0,1.0,0,1.0
1259,'1',0.0,0.0,170.888,-37.266,1.054,0,335.73,0.0,1.0,0.0,0.0,1.0,1,1.0,335.733,70.447,1,1.0,0,1.0,0,1.0,0,1.0,0,1.0
1260,'1',0.0,0.0,170.888,-37.266,1.054,0,335.73,0.0,1.0,0.0,0.0,1.0,1,1.0,335.733,47.366,1,1.0,0,1.0,0,1.0,0,1.0,0,1.0
1261,'1',0.0,0.0,170.888,-37.266,1.054,0,335.73,0.0,1.0,0.0,0.0,1.0,1,1.0,335.733,80.769,1,1.0,0,1.0,0,1.0,0,1.0,0,1.0
1262,'1',0.0,0.0,0.865,-0.189,1.039887,0,1.7,0.0,1.0,0.0,0.0,1.0,0,1.0,1.7,0.215,1,1.0,0,1.0,0,1.0,0,1.0,0,1.0
1266,'1',0.0,0.0,216.457,-56.669,1.0410047,0,464.5,0.0,1.0,0.0,0.0,1.0,0,1.0,464.5,117.172,1,1.0,0,1.0,0,1.0,0,1.0,0,1.0
1267,'1',0.0,0.0,216.457,-56.669,1.045,0,464.5,0.0,1.0,0.0,0.0,1.0,1,1.0,464.5,81.768,1,1.0,0,1.0,0,1.0,0,1.0,0,1.0
1271,'1',0.0,0.0,92.638,-20.202,1.0,0,182.0,0.0,1.0,0.0,0.0,1.0,1,1.0,182.0,82.486,1,1.0,0,1.0,0,1.0,0,1.0,0,1.0
1272,'1',0.0,0.0,92.638,-20.202,1.0,0,182.0,0.0,1.0,0.0,0.0,1.0,1,1.0,182.0,78.655,1,1.0,0,1.0,0,1.0,0,1.0,0,1.0
1273,'1',0.0,0.0,92.638,-20.202,1.0,0,182.0,0.0,1.0,0.0,0.0,1.0,1,1.0,182.0,40.613,1,1.0,0,1.0,0,1.0,0,1.0,0,1.0
1274,'1',0.0,0.0,92.638,-20.202,1.0,0,182.0,0.0,1.0,0.0,0.0,1.0,1,1.0,182.0,67.977,1,1.0,0,1.0,0,1.0,0,1.0,0,1.0
1277,'1',0.0,0.0,23.176,-5.054,1.0467035,0,45.53,0.0,1.0,0.0,0.0,1.0,0,1.0,45.533,22.712,1,1.0,0,1.0,0,1.0,0,1.0,0,1.0
1277,'2',0.0,0.0,23.176,-5.054,1.0467035,0,45.53,0.0,1.0,0.0,0.0,1.0,0,1.0,45.533,4.714,1,1.0,0,1.0,0,1.0,0,1.0,0,1.0
1277,'3',0.0,0.0,23.176,-5.054,1.0467035,0,45.53,0.0,1.0,0.0,0.0,1.0,0,1.0,45.533,8.36,1,1.0,0,1.0,0,1.0,0,1.0,0,1.0
1281,'1',0.0,0.0,127.555,-27.817,1.009,0,250.6,0.0,1.0,0.0,0.0,1.0,1,1.0,250.6,39.394,1,1.0,0,1.0,0,1.0,0,1.0,0,1.0
1282,'1',0.0,0.0,127.555,-27.817,1.009,0,250.6,0.0,1.0,0.0,0.0,1.0,1,1.0,250.6,91.175,1,1.0,0,1.0,0,1.0,0,1.0,0,1.0
1283,'1',0.0,0.0,127.555,-27.817,1.009,0,250.6,0.0,1.0,0.0,0.0,1.0,1,1.0,250.6,104.51,1,1.0,0,1.0,0,1.0,0,1.0,0,1.0
1284,'1',0.0,0.0,127.555,-27.817,1.009,0,250.6,0.0,1.0,0.0,0.0,1.0,1,1.0,250.6,122.414,1,1.0,0,1.0,0,1.0,0,1.0,0,1.0
1285,'1',0.0,0.0,127.555,-27.817,1.009,0,250.6,0.0,1.0,0.0,0.0,1.0,1,1.0,250.6,60.398,1,1.0,0,1.0,0,1.0,0,1.0,0,1.0
1289,'1',0.0,0.0,109.299,-23.835,1.0585,0,214.73,0.0,1.0,0.0,0.0,1.0,1,1.0,214.733,106.491,1,1.0,0,1.0,0,1.0,0,1.0,0,1.0
1290,'1',0.0,0.0,109.299,-23.835,1.0585,0,214.73,0.0,1.0,0.0,0.0,1.0,1,1.0,214.733,100.357,1,1.0,0,1.0,0,1.0,0,1.0,0,1.0
1291,'1',0.0,0.0,109.299,-23.835,1.0585,0,214.73,0.0,1.0,0.0,0.0,1.0,1,1.0,214.733,70.061,1,1.0,0,1.0,0,1.0,0,1.0,0,1.0
1295,'1',0.0,0.0,164.789,-35.936,1.0332574,0,323.75,0.0,1.0,0.0,0.0,1.0,1,1.0,323.75,124.809,1,1.0,0,1.0,0,1.0,0,1.0,0,1.0
1296,'1',0.0,0.0,164.789,-35.936,1.0315506,0,323.75,0.0,1.0,0.0,0.0,1.0,1,1.0,323.75,158.99,1,1.0,0,1.0,0,1.0,0,1.0,0,1.0
1297,'1',0.0,0.0,164.789,-35.936,1.0342948,0,323.75,0.0,1.0,0.0,0.0,1.0,1,1.0,323.75,120.44,1,1.0,0,1.0,0,1.0,0,1.0,0,1.0
1298,'1',0.0,0.0,164.789,-35.936,1.0358599,0,323.75,0.0,1.0,0.0,0.0,1.0,1,1.0,323.75,137.507,1,1.0,0,1.0,0,1.0,0,1.0,0,1.0
1300,'1',0.0,0.0,1.476,-0.322,1.0324181,0,2.9,0.0,1.0,0.0,0.0,1.0,0,1.0,2.9,1.047,1,1.0,0,1.0,0,1.0,0,1.0,0,1.0
1300,'2',0.0,0.0,35.579,-7.759,1.0324181,0,69.9,0.0,1.0,0.0,0.0,1.0,1,1.0,69.9,30.179,1,1.0,0,1.0,0,1.0,0,1.0,0,1.0
1300,'3',0.0,0.0,35.579,-7.759,1.0324181,0,69.9,0.0,1.0,0.0,0.0,1.0,1,1.0,69.9,28.041,1,1.0,0,1.0,0,1.0,0,1.0,0,1.0
1300,'4',0.0,0.0,35.579,-7.759,1.0324181,0,69.9,0.0,1.0,0.0,0.0,1.0,1,1.0,69.9,10.434,1,1.0,0,1.0,0,1.0,0,1.0,0,1.0
1300,'5',0.0,0.0,35.579,-7.759,1.0324181,0,69.9,0.0,1.0,0.0,0.0,1.0,1,1.0,69.9,23.393,1,1.0,0,1.0,0,1.0,0,1.0,0,1.0
1301,'1',0.0,0.0,1.476,-0.322,1.0306406,0,2.9,0.0,1.0,0.0,0.0,1.0,0,1.0,2.9,0.497,1,1.0,0,1.0,0,1.0,0,1.0,0,1.0
1303,'1',0.0,0.0,116.782,-25.467,1.04,0,229.43,0.0,1.0,0.0,0.0,1.0,1,1.0,229.433,45.211,1,1.0,0,1.0,0,1.0,0,1.0,0,1.0
1303,'2',0.0,0.0,116.782,-25.467,1.04,0,229.43,0.0,1.0,0.0,0.0,1.0,1,1.0,229.433,51.807,1,1.0,0,1.0,0,1.0,0,1.0,0,1.0
1303,'3',0.0,0.0,116.782,-25.467,1.04,0,229.43,0.0,1.0,0.0,0.0,1.0,1,1.0,229.433,88.194,1,1.0,0,1.0,0,1.0,0,1.0,0,1.0
1308,'1',0.0,0.0,89.482,-19.514,1.0356023,0,175.8,0.0,1.0,0.0,0.0,1.0,1,1.0,175.8,61.666,1,1.0,0,1.0,0,1.0,0,1.0,0,1.0
1309,'1',0.0,0.0,89.482,-19.514,1.0362491,0,175.8,0.0,1.0,0.0,0.0,1.0,1,1.0,175.8,46.674,1,1.0,0,1.0,0,1.0,0,1.0,0,1.0
1310,'1',0.0,0.0,89.482,-19.514,1.0352781,0,175.8,0.0,1.0,0.0,0.0,1.0,1,1.0,175.8,75.957,1,1.0,0,1.0,0,1.0,0,1.0,0,1.0
1311,'1',0.0,0.0,89.482,-19.514,1.0321259,0,175.8,0.0,1.0,0.0,0.0,1.0,1,1.0,175.8,23.848,1,1.0,0,1.0,0,1.0,0,1.0,0,1.0
1313,'1',0.0,0.0,0.559,-0.146,1.04,0,1.2,0.0,1.0,0.0,0.0,1.0,1,1.0,1.2,0.38,1,1.0,0,1.0,0,1.0,0,1.0,0,1.0
1313,'10',0.0,0.0,3.883,-1.017,1.04,0,8.33,0.0,1.0,0.0,0.0,1.0,0,1.0,8.333,1.146,1,1.0,0,1.0,0,1.0,0,1.0,0,1.0
1313,'2',0.0,0.0,0.559,-0.146,1.04,0,1.2,0.0,1.0,0.0,0.0,1.0,1,1.0,1.2,0.418,1,1.0,0,1.0,0,1.0,0,1.0,0,1.0
1313,'3',0.0,0.0,1.165,-0.305,1.04,0,2.5,0.0,1.0,0.0,0.0,1.0,1,1.0,2.5,0.399,1,1.0,0,1.0,0,1.0,0,1.0,0,1.0
1313,'4',0.0,0.0,1.165,-0.305,1.04,0,2.5,0.0,1.0,0.0,0.0,1.0,1,1.0,2.5,0.615,1,1.0,0,1.0,0,1.0,0,1.0,0,1.0
1313,'5',0.0,0.0,3.883,-1.017,1.04,0,8.33,0.0,1.0,0.0,0.0,1.0,1,1.0,8.333,2.53,1,1.0,0,1.0,0,1.0,0,1.0,0,1.0
1313,'6',0.0,0.0,3.883,-1.017,1.04,0,8.33,0.0,1.0,0.0,0.0,1.0,1,1.0,8.333,2.739,1,1.0,0,1.0,0,1.0,0,1.0,0,1.0
1313,'7',0.0,0.0,3.883,-1.017,1.04,0,8.33,0.0,1.0,0.0,0.0,1.0,1,1.0,8.333,3.593,1,1.0,0,1.0,0,1.0,0,1.0,0,1.0
1313,'8',0.0,0.0,3.883,-1.017,1.04,0,8.33,0.0,1.0,0.0,0.0,1.0,1,1.0,8.333,2.702,1,1.0,0,1.0,0,1.0,0,1.0,0,1.0
1313,'9',0.0,0.0,3.883,-1.017,1.04,0,8.33,0.0,1.0,0.0,0.0,1.0,0,1.0,8.333,3.708,1,1.0,0,1.0,0,1.0,0,1.0,0,1.0
1318,'1',0.0,0.0,101.8,-22.2,1.045,0,200.0,0.0,1.0,0.0,0.0,1.0,1,1.0,200.0,44.798,1,1.0,0,1.0,0,1.0,0,1.0,0,1.0
1319,'1',0.0,0.0,101.8,-22.2,1.045,0,200.0,0.0,1.0,0.0,0.0,1.0,1,1.0,200.0,80.25,1,1.0,0,1.0,0,1.0,0,1.0,0,1.0
1320,'1',0.0,0.0,101.8,-22.2,1.045,0,200.0,0.0,1.0,0.0,0.0,1.0,1,1.0,200.0,63.846,1,1.0,0,1.0,0,1.0,0,1.0,0,1.0
1325,'1',0.0,0.0,435.477,-114.009,1.063,0,934.5,0.0,1.0,0.0,0.0,1.0,1,1.0,934.5,193.556,1,1.0,0,1.0,0,1.0,0,1.0,0,1.0
1326,'1',0.0,0.0,435.477,-114.009,1.063,0,934.5,0.0,1.0,0.0,0.0,1.0,1,1.0,934.5,382.669,1,1.0,0,1.0,0,1.0,0,1.0,0,1.0
1328,'1',0.0,0.0,26.422,-6.917,1.039,0,56.7,0.0,1.0,0.0,0.0,1.0,1,1.0,56.7,6.738,1,1.0,0,1.0,0,1.0,0,1.0,0,1.0
1328,'2',0.0,0.0,26.422,-6.917,1.039,0,56.7,0.0,1.0,0.0,0.0,1.0,1,1.0,56.7,10.159,1,1.0,0,1.0,0,1.0,0,1.0,0,1.0
1328,'3',0.0,0.0,26.422,-6.917,1.039,0,56.7,0.0,1.0,0.0,0.0,1.0,1,1.0,56.7,17.917,1,1.0,0,1.0,0,1.0,0,1.0,0,1.0
1328,'4',0.0,0.0,26.422,-6.917,1.039,0,56.7,0.0,1.0,0.0,0.0,1.0,1,1.0,56.7,16.45,1,1.0,0,1.0,0,1.0,0,1.0,0,1.0
1330,'1',0.0,0.0,43.774,-9.546,1.0454227,0,86.0,0.0,1.0,0.0,0.0,1.0,1,1.0,86.0,10.367,1,1.0,0,1.0,0,1.0,0,1.0,0,1.0
1330,'2',0.0,0.0,43.774,-9.546,1.0454227,0,86.0,0.0,1.0,0.0,0.0,1.0,1,1.0,86.0,20.519,1,1.0,0,1.0,0,1.0,0,1.0,0,1.0
1330,'3',0.0,0.0,43.774,-9.546,1.0454227,0,86.0,0.0,1.0,0.0,0.0,1.0,1,1.0,86.0,31.997,1,1.0,0,1.0,0,1.0,0,1.0,0,1.0
1332,'1',0.0,0.0,0.0,0.0,1.0433201,0,1.0,0.0,1.0,0.0,0.0,1.0,1,1.0,1.0,0.404,1,1.0,0,1.0,0,1.0,0,1.0,0,1.0
1332,'2',0.0,0.0,0.0,0.0,1.0433201,0,2.7,0.0,1.0,0.0,0.0,1.0,1,1.0,2.7,1.326,1,1.0,0,1.0,0,1.0,0,1.0,0,1.0
1332,'3',0.0,0.0,0.0,0.0,1.0433201,0,3.5,0.0,1.0,0.0,0.0,1.0,1,1.0,3.5,0.715,1,1.0,0,1.0,0,1.0,0,1.0,0,1.0
1332,'4',0.0,0.0,0.0,0.0,1.0433201,0,25.0,0.0,1.0,0.0,0.0,1.0,1,1.0,25.0,10.328,1,1.0,0,1.0,0,1.0,0,1.0,0,1.0
1336,'1',0.0,0.0,70.776,-15.435,1.0675,0,139.05,0.0,1.0,0.0,0.0,1.0,1,1.0,139.05,37.946,1,1.0,0,1.0,0,1.0,0,1.0,0,1.0
1337,'1',0.0,0.0,70.776,-15.435,1.0675,0,139.05,0.0,1.0,0.0,0.0,1.0,1,1.0,139.05,63.171,1,1.0,0,1.0,0,1.0,0,1.0,0,1.0
1341,'1',0.0,0.0,169.531,-44.384,1.0405342,0,363.8,0.0,1.0,0.0,0.0,1.0,0,1.0,363.8,134.77,1,1.0,0,1.0,0,1.0,0,1.0,0,1.0
1343,'1',0.0,0.0,23.821,-5.195,1.0153595,0,46.8,0.0,1.0,0.0,0.0,1.0,1,1.0,46.8,17.098,1,1.0,0,1.0,0,1.0,0,1.0,0,1.0
1345,'1',0.0,0.0,19.495,-4.251,0.99498624,0,38.3,0.0,1.0,0.0,0.0,1.0,0,1.0,38.3,4.815,1,1.0,0,1.0,0,1.0,0,1.0,0,1.0
1346,'1',0.0,0.0,19.495,-4.251,1.0107992,0,38.3,0.0,1.0,0.0,0.0,1.0,0,1.0,38.3,17.942,1,1.0,0,1.0,0,1.0,0,1.0,0,1.0
1346,'2',0.0,0.0,19.495,-4.251,1.0107992,0,38.3,0.0,1.0,0.0,0.0,1.0,0,1.0,38.3,17.183,1,1.0,0,1.0,0,1.0,0,1.0,0,1.0
1346,'3',0.0,0.0,19.495,-4.251,1.0107992,0,38.3,0.0,1.0,0.0,0.0,1.0,0,1.0,38.3,12.737,1,1.0,0,1.0,0,1.0,0,1.0,0,1.0
1348,'1',0.0,0.0,2.087,-0.455,1.0491739,0,4.1,0.0,1.0,0.0,0.0,1.0,0,1.0,4.1,1.28,1,1.0,0,1.0,0,1.0,0,1.0,0,1.0
1348,'2',0.0,0.0,2.087,-0.455,1.0491739,0,4.1,0.0,1.0,0.0,0.0,1.0,0,1.0,4.1,0.484,1,1.0,0,1.0,0,1.0,0,1.0,0,1.0
1350,'1',0.0,0.0,0.0,0.0,1.0396885,0,5.1,0.0,1.0,0.0,0.0,1.0,1,1.0,5.1,1.284,1,1.0,0,1.0,0,1.0,0,1.0,0,1.0
1350,'2',0.0,0.0,0.0,0.0,1.0396885,0,10.0,0.0,1.0,0.0,0.0,1.0,1,1.0,10.0,1.91,1,1.0,0,1.0,0,1.0,0,1.0,0,1.0
1352,'1',0.0,0.0,8.947,-2.342,1.0278728,0,19.2,0.0,1.0,0.0,0.0,1.0,0,1.0,19.2,3.432,1,1.0,0,1.0,0,1.0,0,1.0,0,1.0
1354,'1',0.0,0.0,13.539,-2.953,1.0448749,0,26.6,0.0,1.0,0.0,0.0,1.0,0,1.0,26.6,8.702,1,1.0,0,1.0,0,1.0,0,1.0,0,1.0
1356,'1',0.0,0.0,17.153,-3.741,1.0415792,0,33.7,0.0,1.0,0.0,0.0,1.0,0,1.0,33.7,11.2,1,1.0,0,1.0,0,1.0,0,1.0,0,1.0
1360,'1',0.0,0.0,207.714,-45.297,1.036,0,408.08,0.0,1.0,0.0,0.0,1.0,1,1.0,408.083,167.073,1,1.0,0,1.0,0,1.0,0,1.0,0,1.0
1361,'1',0.0,0.0,207.714,-45.297,1.036,0,408.08,0.0,1.0,0.0,0.0,1.0,1,1.0,408.083,44.635,1,1.0,0,1.0,0,1.0,0,1.0,0,1.0
1362,'1',0.0,0.0,207.714,-45.297,1.036,0,408.08,0.0,1.0,0.0,0.0,1.0,1,1.0,408.083,142.324,1,1.0,0,1.0,0,1.0,0,1.0,0,1.0
1363,'1',0.0,0.0,207.714,-45.297,1.036,0,408.08,0.0,1.0,0.0,0.0,1.0,1,1.0,408.083,195.064,1,1.0,0,1.0,0,1.0,0,1.0,0,1.0
1364,'1',0.0,0.0,207.714,-45.297,1.036,0,408.08,0.0,1.0,0.0,0.0,1.0,1,1.0,408.083,151.081,1,1.0,0,1.0,0,1.0,0,1.0,0,1.0
1365,'1',0.0,0.0,207.714,-45.297,1.036,0,408.08,0.0,1.0,0.0,0.0,1.0,1,1.0,408.083,82.263,1,1.0,0,1.0,0,1.0,0,1.0,0,1.0
1370,'1',0.0,0.0,212.321,-55.586,1.0368348,0,455.63,0.0,1.0,0.0,0.0,1.0,0,1.0,455.625,138.412,1,1.0,0,1.0,0,1.0,0,1.0,0,1.0
1371,'1',0.0,0.0,212.321,-55.586,1.0368348,0,455.63,0.0,1.0,0.0,0.0,1.0,0,1.0,455.625,88.104,1,1.0,0,1.0,0,1.0,0,1.0,0,1.0
1372,'1',0.0,0.0,212.321,-55.586,1.0368348,0,455.63,0.0,1.0,0.0,0.0,1.0,0,1.0,455.625,105.861,1,1.0,0,1.0,0,1.0,0,1.0,0,1.0
1373,'1',0.0,0.0,212.321,-55.586,1.0368348,0,455.63,0.0,1.0,0.0,0.0,1.0,0,1.0,455.625,111.3,1,1.0,0,1.0,0,1.0,0,1.0,0,1.0
...
0 / END OF GENERATOR DATA BEGIN BRANCH DATA
1,3,'1',0.00023182,0.00102493,0.0,99999.0,99999.0,99999.0,0.0,0.0,0.0,0.0,1,1,0.0,1,1.0,0,1.0,0,1.0,0,1.0
1,28,'1',0.00413857,0.0270728,0.00746341,219.62,219.62,219.62,0.0,0.0,0.0,0.0,1,1,0.0,1,1.0,0,1.0,0,1.0,0,1.0
1,174,'1',0.00529188,0.0209981,0.0166533,241.75,241.75,241.75,0.0,0.0,0.0,0.0,1,1,0.0,1,1.0,0,1.0,0,1.0,0,1.0
1,174,'2',0.00529188,0.0209981,0.0166533,241.75,241.75,241.75,0.0,0.0,0.0,0.0,1,1,0.0,1,1.0,0,1.0,0,1.0,0,1.0
1,247,'1',0.00712647,0.0357571,0.00985329,265.68,265.68,265.68,0.0,0.0,0.0,0.0,1,1,0.0,1,1.0,0,1.0,0,1.0,0,1.0
1,248,'1',0.00369663,0.021138,0.0100986,243.83,243.83,243.83,0.0,0.0,0.0,0.0,1,1,0.0,1,1.0,0,1.0,0,1.0,0,1.0
2,23,'1',0.0104592,0.0332497,0.00196885,79.04,79.04,79.04,0.0,0.0,0.0,0.0,1,1,0.0,1,1.0,0,1.0,0,1.0,0,1.0
2,23,'2',0.0104592,0.0332497,0.00196885,79.04,79.04,79.04,0.0,0.0,0.0,0.0,1,1,0.0,1,1.0,0,1.0,0,1.0,0,1.0
2,23,'3',0.0104592,0.0332497,0.00196885,79.04,79.04,79.04,0.0,0.0,0.0,0.0,1,1,0.0,1,1.0,0,1.0,0,1.0,0,1.0
4,128,'1',0.0132902,0.0268195,0.00578327,64.44,64.44,64.44,0.0,0.0,0.0,0.0,1,1,0.0,1,1.0,0,1.0,0,1.0,0,1.0
4,164,'1',0.0219322,0.0591199,0.0121884,52.0,52.0,52.0,0.0,0.0,0.0,0.0,1,1,0.0,1,1.0,0,1.0,0,1.0,0,1.0
5,4,'1',0.0108814,0.0309317,0.0010461,80.95,80.95,80.95,0.0,0.0,0.0,0.0,1,1,0.0,1,1.0,0,1.0,0,1.0,0,1.0
5,10,'1',0.00934009,0.0255526,0.00609131,108.59,108.59,108.59,0.0,0.0,0.0,0.0,1,1,0.0,1,1.0,0,1.0,0,1.0,0,1.0
6,13,'1',0.0134592,0.0297145,0.0015211,65.19,65.19,65.19,0.0,0.0,0.0,0.0,1,1,0.0,1,1.0,0,1.0,0,1.0,0,1.0
6,13,'2',0.0134592,0.0297145,0.0015211,65.19,65.19,65.19,0.0,0.0,0.0,0.0,1,1,0.0,1,1.0,0,1.0,0,1.0,0,1.0
6,43,'1',0.0177663,0.0495402,0.00459009,81.61,81.61,81.61,0.0,0.0,0.0,0.0,1,1,0.0,1,1.0,0,1.0,0,1.0,0,1.0
6,43,'2',0.0177663,0.0495402,0.00459009,81.61,81.61,81.61,0.0,0.0,0.0,0.0,1,1,0.0,1,1.0,0,1.0,0,1.0,0,1.0
6,43,'3',0.0177663,0.0495402,0.00459009,81.61,81.61,81.61,0.0,0.0,0.0,0.0,1,1,0.0,1,1.0,0,1.0,0,1.0,0,1.0
7,86,'1',0.00434889,0.0146316,0.0344193,256.34,256.34,256.34,0.0,0.0,0.0,0.0,1,1,0.0,1,1.0,0,1.0,0,1.0,0,1.0
7,86,'2',0.00434889,0.0146316,0.0344193,256.34,256.34,256.34,0.0,0.0,0.0,0.0,1,1,0.0,1,1.0,0,1.0,0,1.0,0,1.0
7,86,'3',0.00434889,0.0146316,0.0344193,256.34,256.34,256.34,0.0,0.0,0.0,0.0,1,1,0.0,1,1.0,0,1.0,0,1.0,0,1.0
8,214,'1',0.0177395,0.0479832,0.00111804,105.16,105.16,105.16,0.0,0.0,0.0,0.0,1,1,0.0,1,1.0,0,1.0,0,1.0,0,1.0
9,7,'1',0.00214021,0.0150334,0.0121318,319.17,319.17,319.17,0.0,0.0,0.0,0.0,1,1,0.0,1,1.0,0,1.0,0,1.0,0,1.0
9,11,'1',0.000211449,0.00119004,0.0,99999.0,99999.0,99999.0,0.0,0.0,0.0,0.0,1,1,0.0,1,1.0,0,1.0,0,1.0,0,1.0
9,208,'1',0.00444784,0.0271527,0.0302679,318.16,318.16,318.16,0.0,0.0,0.0,0.0,1,1,0.0,1,1.0,0,1.0,0,1.0,0,1.0
10,6,'1',0.0170262,0.0421583,0.00119287,86.29,86.29,86.29,0.0,0.0,0.0,0.0,1,1,0.0,1,1.0,0,1.0,0,1.0,0,1.0
12,14,'1',0.000238768,0.00116074,0.0,99999.0,99999.0,99999.0,0.0,0.0,0.0,0.0,1,1,0.0,1,1.0,0,1.0,0,1.0,0,1.0
13,8,'1',0.0165507,0.0426667,0.00366785,133.11,133.11,133.11,0.0,0.0,0.0,0.0,1,1,0.0,1,1.0,0,1.0,0,1.0,0,1.0
13,17,'1',0.0320514,0.0754904,0.00235805,82.53,82.53,82.53,0.0,0.0,0.0,0.0,1,1,0.0,1,1.0,0,1.0,0,1.0,0,1.0
13,187,'1',0.0069238,0.0171061,0.00801142,79.4,79.4,79.4,0.0,0.0,0.0,0.0,1,1,0.0,1,1.0,0,1.0,0,1.0,0,1.0
14,9,'1',0.00364564,0.0218068,0.0060302,172.04,172.04,172.04,0.0,0.0,0.0,0.0,1,1,0.0,1,1.0,0,1.0,0,1.0,0,1.0
15,151,'1',0.00171507,0.0115251,0.0086048,286.2,286.2,286.2,0.0,0.0,0.0,0.0,1,1,0.0,1,1.0,0,1.0,0,1.0,0,1.0
15,211,'1',0.00192474,0.0105067,0.00425216,280.32,280.32,280.32,0.0,0.0,0.0,0.0,1,1,0.0,1,1.0,0,1.0,0,1.0,0,1.0
15,232,'1',0.0046,0.029799,0.0212613,280.54,280.54,280.54,0.0,0.0,0.0,0.0,1,1,0.0,1,1.0,0,1.0,0,1.0,0,1.0
15,232,'2',0.0046,0.029799,0.0212613,321.13,321.13,321.13,0.0,0.0,0.0,0.0,1,1,0.0,1,1.0,0,1.0,0,1.0,0,1.0
16,21,'1',0.011558,0.0357297,0.00234347,105.45,105.45,105.45,0.0,0.0,0.0,0.0,1,1,0.0,1,1.0,0,1.0,0,1.0,0,1.0
16,35,'1',0.00813416,0.0195601,0.00218755,92.42,92.42,92.42,0.0,0.0,0.0,0.0,1,1,0.0,1,1.0,0,1.0,0,1.0,0,1.0
16,37,'1',0.0129734,0.0401236,0.000641011,73.63,73.63,73.63,0.0,0.0,0.0,0.0,1,1,0.0,1,1.0,0,1.0,0,1.0,0,1.0
17,43,'1',0.0167472,0.042412,0.00168994,99.4,99.4,99.4,0.0,0.0,0.0,0.0,1,1,0.0,1,1.0,0,1.0,0,1.0,0,1.0
18,19,'1',0.000249168,0.00107953,0.0,99999.0,99999.0,99999.0,0.0,0.0,0.0,0.0,1,1,0.0,1,1.0,0,1.0,0,1.0,0,1.0
18,187,'1',0.018127,0.0528191,0.00213896,73.01,73.01,73.01,0.0,0.0,0.0,0.0,1,1,0.0,1,1.0,0,1.0,0,1.0,0,1.0
18,187,'2',0.018127,0.0528191,0.00213896,82.62,82.62,82.62,0.0,0.0,0.0,0.0,1,1,0.0,1,1.0,0,1.0,0,1.0,0,1.0
20,22,'1',0.000219564,0.00118149,0.0,99999.0,99999.0,99999.0,0.0,0.0,0.0,0.0,1,1,0.0,1,1.0,0,1.0,0,1.0,0,1.0
21,38,'1',0.0228097,0.052298,0.00200842,68.0,68.0,68.0,0.0,0.0,0.0,0.0,1,1,0.0,1,1.0,0,1.0,0,1.0,0,1.0
21,38,'2',0.0228097,0.052298,0.00200842,68.0,68.0,68.0,0.0,0.0,0.0,0.0,1,1,0.0,1,1.0,0,1.0,0,1.0,0,1.0
22,34,'1',0.00459707,0.0237513,0.0317594,215.75,215.75,215.75,0.0,0.0,0.0,0.0,1,1,0.0,1,1.0,0,1.0,0,1.0,0,1.0
22,86,'1',0.0024419,0.0144345,0.00822082,267.98,267.98,267.98,0.0,0.0,0.0,0.0,1,1,0.0,1,1.0,0,1.0,0,1.0,0,1.0
22,215,'1',0.00318566,0.01486,0.0134473,258.04,258.04,258.04,0.0,0.0,0.0,0.0,1,1,0.0,1,1.0,0,1.0,0,1.0,0,1.0
22,215,'2',0.00318566,0.01486,0.0134473,258.04,258.04,258.04,0.0,0.0,0.0,0.0,1,1,0.0,1,1.0,0,1.0,0,1.0,0,1.0
22,215,'3',0.00318566,0.01486,0.0134473,258.04,258.04,258.04,0.0,0.0,0.0,0.0,1,1,0.0,1,1.0,0,1.0,0,1.0,0,1.0
22,548,'1',0.00620426,0.0329366,0.0176561,258.61,258.61,258.61,0.0,0.0,0.0,0.0,1,1,0.0,1,1.0,0,1.0,0,1.0,0,1.0
22,548,'2',0.00620426,0.0329366,0.0176561,258.61,258.61,258.61,0.0,0.0,0.0,0.0,1,1,0.0,1,1.0,0,1.0,0,1.0,0,1.0
22,548,'3',0.00620426,0.0329366,0.0176561,258.61,258.61,258.61,0.0,0.0,0.0,0.0,1,1,0.0,1,1.0,0,1.0,0,1.0,0,1.0
23,177,'1',0.0167668,0.0454559,0.00130041,75.07,75.07,75.07,0.0,0.0,0.0,0.0,1,1,0.0,1,1.0,0,1.0,0,1.0,0,1.0
24,16,'1',0.0118471,0.0318563,0.00208615,99.33,99.33,99.33,0.0,0.0,0.0,0.0,1,1,0.0,1,1.0,0,1.0,0,1.0,0,1.0
24,25,'1',0.000264528,0.00110156,0.0,99999.0,99999.0,99999.0,0.0,0.0,0.0,0.0,1,1,0.0,1,1.0,0,1.0,0,1.0,0,1.0
24,41,'1',0.015854,0.041633,0.00114618,67.07,67.07,67.07,0.0,0.0,0.0,0.0,1,1,0.0,1,1.0,0,1.0,0,1.0,0,1.0
24,41,'2',0.015854,0.041633,0.00114618,67.07,67.07,67.07,0.0,0.0,0.0,0.0,1,1,0.0,1,1.0,0,1.0,0,1.0,0,1.0
26,28,'1',0.000288654,0.00112215,0.0,99999.0,99999.0,99999.0,0.0,0.0,0.0,0.0,1,1,0.0,1,1.0,0,1.0,0,1.0,0,1.0
27,23,'1',0.0127749,0.0299585,0.00159547,59.21,59.21,59.21,0.0,0.0,0.0,0.0,1,1,0.0,1,1.0,0,1.0,0,1.0,0,1.0
27,177,'1',0.0148095,0.0384174,0.00194579,76.41,76.41,76.41,0.0,0.0,0.0,0.0,1,1,0.0,1,1.0,0,1.0,0,1.0,0,1.0
27,219,'1',0.0146725,0.0356523,0.000881023,55.36,55.36,55.36,0.0,0.0,0.0,0.0,1,1,0.0,1,1.0,0,1.0,0,1.0,0,1.0
28,165,'1',0.00356549,0.0232361,0.00589297,350.0,350.0,350.0,0.0,0.0,0.0,0.0,1,1,0.0,1,1.0,0,1.0,0,1.0,0,1.0
28,174,'1',0.00146485,0.0101278,0.00457715,241.31,241.31,241.31,0.0,0.0,0.0,0.0,1,1,0.0,1,1.0,0,1.0,0,1.0,0,1.0
28,555,'1',0.00683845,0.0343749,0.0208829,322.49,322.49,322.49,0.0,0.0,0.0,0.0,1,1,0.0,1,1.0,0,1.0,0,1.0,0,1.0
29,252,'1',0.0190813,0.056663,0.00108459,60.63,60.63,60.63,0.0,0.0,0.0,0.0,1,1,0.0,1,1.0,0,1.0,0,1.0,0,1.0
29,267,'1',0.0244295,0.0641456,0.00258533,81.86,81.86,81.86,0.0,0.0,0.0,0.0,1,1,0.0,1,1.0,0,1.0,0,1.0,0,1.0
29,557,'1',0.00231061,0.00635728,0.000323514,96.22,96.22,96.22,0.0,0.0,0.0,0.0,1,1,0.0,1,1.0,0,1.0,0,1.0,0,1.0
29,557,'2',0.00231061,0.00635728,0.000323514,109.17,109.17,109.17,0.0,0.0,0.0,0.0,1,1,0.0,1,1.0,0,1.0,0,1.0,0,1.0
30,31,'1',0.0017784,0.0116988,0.00650237,191.0,191.0,191.0,0.0,0.0,0.0,0.0,1,1,0.0,1,1.0,0,1.0,0,1.0,0,1.0
31,33,'1',0.000274453,0.00119906,0.0,99999.0,99999.0,99999.0,0.0,0.0,0.0,0.0,1,1,0.0,1,1.0,0,1.0,0,1.0,0,1.0
31,42,'1',0.00623491,0.0279952,0.00721758,229.38,229.38,229.38,0.0,0.0,0.0,0.0,1,1,0.0,1,1.0,0,1.0,0,1.0,0,1.0
32,17,'1',0.0264094,0.065065,0.0020865,68.42,68.42,68.42,0.0,0.0,0.0,0.0,1,1,0.0,1,1.0,0,1.0,0,1.0,0,1.0
32,17,'2',0.0264094,0.065065,0.0020865,68.42,68.42,68.42,0.0,0.0,0.0,0.0,1,1,0.0,1,1.0,0,1.0,0,1.0,0,1.0
32,283,'1',0.0142241,0.0432463,0.00220303,67.66,67.66,67.66,0.0,0.0,0.0,0.0,1,1,0.0,1,1.0,0,1.0,0,1.0,0,1.0
32,283,'2',0.0142241,0.0432463,0.00220303,67.66,67.66,67.66,0.0,0.0,0.0,0.0,1,1,0.0,1,1.0,0,1.0,0,1.0,0,1.0
34,31,'1',0.003786,0.0214023,0.00785309,232.2,232.2,232.2,0.0,0.0,0.0,0.0,1,1,0.0,1,1.0,0,1.0,0,1.0,0,1.0
34,31,'2',0.003786,0.0214023,0.00785309,232.2,232.2,232.2,0.0,0.0,0.0,0.0,1,1,0.0,1,1.0,0,1.0,0,1.0,0,1.0
34,39,'1',0.00416941,0.0265708,0.00900656,241.19,241.19,241.19,0.0,0.0,0.0,0.0,1,1,0.0,1,1.0,0,1.0,0,1.0,0,1.0
34,39,'2',0.00416941,0.0265708,0.00900656,241.19,241.19,241.19,0.0,0.0,0.0,0.0,1,1,0.0,1,1.0,0,1.0,0,1.0,0,1.0
34,564,'1',0.00581665,0.0316411,0.00756963,215.42,215.42,215.42,0.0,0.0,0.0,0.0,1,1,0.0,1,1.0,0,1.0,0,1.0,0,1.0
35,238,'1',0.0300367,0.0904545,0.00848998,62.8,62.8,62.8,0.0,0.0,0.0,0.0,1,1,0.0,1,1.0,0,1.0,0,1.0,0,1.0
35,557,'1',0.0312946,0.0706114,0.00282773,76.09,76.09,76.09,0.0,0.0,0.0,0.0,1,1,0.0,1,1.0,0,1.0,0,1.0,0,1.0
35,557,'2',0.0312946,0.0706114,0.00282773,76.09,76.09,76.09,0.0,0.0,0.0,0.0,1,1,0.0,1,1.0,0,1.0,0,1.0,0,1.0
35,557,'3',0.0312946,0.0706114,0.00282773,76.09,76.09,76.09,0.0,0.0,0.0,0.0,1,1,0.0,1,1.0,0,1.0,0,1.0,0,1.0
36,35,'1',0.0265135,0.047453,0.00141328,68.8,68.8,68.8,0.0,0.0,0.0,0.0,1,1,0.0,1,1.0,0,1.0,0,1.0,0,1.0
36,35,'2',0.0265135,0.047453,0.00141328,68.8,68.8,68.8,0.0,0.0,0.0,0.0,1,1,0.0,1,1.0,0,1.0,0,1.0,0,1.0
36,245,'1',0.0293616,0.0673862,0.0011626,49.63,49.63,49.63,0.0,0.0,0.0,0.0,1,1,0.0,1,1.0,0,1.0,0,1.0,0,1.0
36,249,'1',0.00801014,0.0261499,0.00092202,75.41,75.41,75.41,0.0,0.0,0.0,0.0,1,1,0.0,1,1.0,0,1.0,0,1.0,0,1.0
36,249,'2',0.00801014,0.0261499,0.00092202,75.41,75.41,75.41,0.0,0.0,0.0,0.0,1,1,0.0,1,1.0,0,1.0,0,1.0,0,1.0
36,249,'3',0.00801014,0.0261499,0.00092202,75.41,75.41,75.41,0.0,0.0,0.0,0.0,1,1,0.0,1,1.0,0,1.0,0,1.0,0,1.0
36,557,'1',0.0164183,0.0420729,0.0024045,101.25,101.25,101.25,0.0,0.0,0.0,0.0,1,1,0.0,1,1.0,0,1.0,0,1.0,0,1.0
37,21,'1',0.0161314,0.0299526,0.00131014,73.06,73.06,73.06,0.0,0.0,0.0,0.0,1,1,0.0,1,1.0,0,1.0,0,1.0,0,1.0
37,35,'1',0.0126768,0.0268139,0.00271526,77.95,77.95,77.95,0.0,0.0,0.0,0.0,1,1,0.0,1,1.0,0,1.0,0,1.0,0,1.0
37,35,'2',0.0126768,0.0268139,0.00271526,77.95,77.95,77.95,0.0,0.0,0.0,0.0,1,1,0.0,1,1.0,0,1.0,0,1.0,0,1.0
37,35,'3',0.0126768,0.0268139,0.00271526,77.95,77.95,77.95,0.0,0.0,0.0,0.0,1,1,0.0,1,1.0,0,1.0,0,1.0,0,1.0
37,38,'1',0.0187055,0.0608938,0.00196692,68.2,68.2,68.2,0.0,0.0,0.0,0.0,1,1,0.0,1,1.0,0,1.0,0,1.0,0,1.0
37,38,'2',0.0187055,0.0608938,0.00196692,68.2,68.2,68.2,0.0,0.0,0.0,0.0,1,1,0.0,1,1.0,0,1.0,0,1.0,0,1.0
37,87,'1',0.0221178,0.0564016,0.00139673,86.12,86.12,86.12,0.0,0.0,0.0,0.0,1,1,0.0,1,1.0,0,1.0,0,1.0,0,1.0
38,173,'1',0.0177711,0.0570116,0.00116236,92.96,92.96,92.96,0.0,0.0,0.0,0.0,1,1,0.0,1,1.0,0,1.0,0,1.0,0,1.0
40,263,'1',0.0271487,0.0714019,0.00446768,55.15,55.15,55.15,0.0,0.0,0.0,0.0,1,1,0.0,1,1.0,0,1.0,0,1.0,0,1.0
40,276,'1',0.0226872,0.0486309,0.000835191,72.1,72.1,72.1,0.0,0.0,0.0,0.0,1,1,0.0,1,1.0,0,1.0,0,1.0,0,1.0
40,276,'2',0.0226872,0.0486309,0.000835191,72.1,72.1,72.1,0.0,0.0,0.0,0.0,1,1,0.0,1,1.0,0,1.0,0,1.0,0,1.0
42,14,'1',0.00495081,0.0249773,0.0106939,198.72,198.72,198.72,0.0,0.0,0.0,0.0,1,1,0.0,1,1.0,0,1.0,0,1.0,0,1.0
42,44,'1',0.000209978,0.00108899,0.0,99999.0,99999.0,99999.0,0.0,0.0,0.0,0.0,1,1,0.0,1,1.0,0,1.0,0,1.0,0,1.0
43,46,'1',0.0241647,0.0448606,0.00129086,89.95,89.95,89.95,0.0,0.0,0.0,0.0,1,1,0.0,1,1.0,0,1.0,0,1.0,0,1.0
45,46,'1',0.0251788,0.0603475,0.00162961,107.1,107.1,107.1,0.0,0.0,0.0,0.0,1,1,0.0,1,1.0,0,1.0,0,1.0,0,1.0
45,275,'1',0.0163836,0.035907,0.00183584,66.64,66.64,66.64,0.0,0.0,0.0,0.0,1,1,0.0,1,1.0,0,1.0,0,1.0,0,1.0
46,209,'1',0.0238416,0.0619123,0.0025303,76.82,76.82,76.82,0.0,0.0,0.0,0.0,1,1,0.0,1,1.0,0,1.0,0,1.0,0,1.0
47,50,'1',0.000237887,0.00109477,0.0,99999.0,99999.0,99999.0,0.0,0.0,0.0,0.0,1,1,0.0,1,1.0,0,1.0,0,1.0,0,1.0
47,524,'1',0.000539494,0.00584139,0.118909,1062.02,1062.02,1062.02,0.0,0.0,0.0,0.0,1,1,0.0,1,1.0,0,1.0,0,1.0,0,1.0
48,73,'1',0.0147435,0.0749894,0.0160216,226.94,226.94,226.94,0.0,0.0,0.0,0.0,1,1,0.0,1,1.0,0,1.0,0,1.0,0,1.0
48,534,'1',0.00216759,0.0137543,0.0523514,269.8,269.8,269.8,0.0,0.0,0.0,0.0,1,1,0.0,1,1.0,0,1.0,0,1.0,0,1.0
48,534,'2',0.00216759,0.0137543,0.0523514,269.8,269.8,269.8,0.0,0.0,0.0,0.0,1,1,0.0,1,1.0,0,1.0,0,1.0,0,1.0
48,534,'3',0.00216759,0.0137543,0.0523514,269.8,269.8,269.8,0.0,0.0,0.0,0.0,1,1,0.0,1,1.0,0,1.0,0,1.0,0,1.0
49,60,'1',0.0218319,0.051633,0.00357013,71.51,71.51,71.51,0.0,0.0,0.0,0.0,1,1,0.0,1,1.0,0,1.0,0,1.0,0,1.0
51,61,'1',0.0394089,0.115713,0.0202389,110.0,110.0,110.0,0.0,0.0,0.0,0.0,1,1,0.0,1,1.0,0,1.0,0,1.0,0,1.0
51,200,'1',0.0312098,0.0713229,0.00237936,112.35,112.35,112.35,0.0,0.0,0.0,0.0,1,1,0.0,1,1.0,0,1.0,0,1.0,0,1.0
52,54,'1',0.000204513,0.00101533,0.0,99999.0,99999.0,99999.0,0.0,0.0,0.0,0.0,1,1,0.0,1,1.0,0,1.0,0,1.0,0,1.0
52,159,'1',0.000268521,0.00355215,0.0808721,1160.4,1160.4,1160.4,0.0,0.0,0.0,0.0,1,1,0.0,1,1.0,0,1.0,0,1.0,0,1.0
53,158,'1',0.00438862,0.024717,0.00913984,247.5,247.5,247.5,0.0,0.0,0.0,0.0,1,1,0.0,1,1.0,0,1.0,0,1.0,0,1.0
53,193,'1',0.00421062,0.0273134,0.0266542,259.13,259.13,259.13,0.0,0.0,0.0,0.0,1,1,0.0,1,1.0,0,1.0,0,1.0,0,1.0
53,193,'2',0.00421062,0.0273134,0.0266542,259.13,259.13,259.13,0.0,0.0,0.0,0.0,1,1,0.0,1,1.0,0,1.0,0,1.0,0,1.0
53,193,'3',0.00421062,0.0273134,0.0266542,259.13,259.13,259.13,0.0,0.0,0.0,0.0,1,1,0.0,1,1.0,0,1.0,0,1.0,0,1.0
53,521,'1',0.00640328,0.0509321,0.00899089,295.34,295.34,295.34,0.0,0.0,0.0,0.0,1,1,0.0,1,1.0,0,1.0,0,1.0,0,1.0
53,521,'2',0.00640328,0.0509321,0.00899089,295.34,295.34,295.34,0.0,0.0,0.0,0.0,1,1,0.0,1,1.0,0,1.0,0,1.0,0,1.0
55,48,'1',0.0054273,0.0328757,0.0133538,200.97,200.97,200.97,0.0,0.0,0.0,0.0,1,1,0.0,1,1.0,0,1.0,0,1.0,0,1.0
55,53,'1',0.00501826,0.0245394,0.0149817,287.21,287.21,287.21,0.0,0.0,0.0,0.0,1,1,0.0,1,1.0,0,1.0,0,1.0,0,1.0
55,53,'2',0.00501826,0.0245394,0.0149817,287.21,287.21,287.21,0.0,0.0,0.0,0.0,1,1,0.0,1,1.0,0,1.0,0,1.0,0,1.0
55,53,'3',0.00501826,0.0245394,0.0149817,287.21,287.21,287.21,0.0,0.0,0.0,0.0,1,1,0.0,1,1.0,0,1.0,0,1.0,0,1.0
55,57,'1',0.000297933,0.00100615,0.0,99999.0,99999.0,99999.0,0.0,0.0,0.0,0.0,1,1,0.0,1,1.0,0,1.0,0,1.0,0,1.0
55,521,'1',0.0060725,0.0302758,0.0132185,226.91,226.91,226.91,0.0,0.0,0.0,0.0,1,1,0.0,1,1.0,0,1.0,0,1.0,0,1.0
...